@<TRIPOS>MOLECULE
*****
 8 8 0 0 0
SMALL
GASTEIGER

@<TRIPOS>ATOM
      1 C           0.0000    0.0000    0.0000 C.2     1  UNL1        0.0000
      2 C           0.0000    0.0000    0.0000 C.2     1  UNL1        0.0000
      3 C           0.0000    0.0000    0.0000 C.2     1  UNL1        0.0000
      4 C           0.0000    0.0000    0.0000 C.2     1  UNL1        0.0000
      5 C           0.0000    0.0000    0.0000 C.2     1  UNL1        0.0000
      6 C           0.0000    0.0000    0.0000 C.2     1  UNL1        0.0000
      7 C           0.0000    0.0000    0.0000 C.2     1  UNL1        0.0000
      8 C           0.0000    0.0000    0.0000 C.2     1  UNL1        0.0000
@<TRIPOS>BOND
     1     1     2    2
     2     2     3    1
     3     3     4    2
     4     4     5    1
     5     5     6    2
     6     6     7    1
     7     7     8    2
     8     1     8    1
@<TRIPOS>MOLECULE
*****
 6 6 0 0 0
SMALL
GASTEIGER

@<TRIPOS>ATOM
      1 C           0.0000    0.0000    0.0000 C.ar    1  UNL1        0.0000
      2 C           0.0000    0.0000    0.0000 C.ar    1  UNL1        0.0000
      3 C           0.0000    0.0000    0.0000 C.ar    1  UNL1        0.0000
      4 C           0.0000    0.0000    0.0000 C.ar    1  UNL1        0.0000
      5 C           0.0000    0.0000    0.0000 C.ar    1  UNL1        0.0000
      6 C           0.0000    0.0000    0.0000 C.ar    1  UNL1        0.0000
@<TRIPOS>BOND
     1     1     2   ar
     2     2     3   ar
     3     3     4   ar
     4     4     5   ar
     5     5     6   ar
     6     1     6   ar
@<TRIPOS>MOLECULE
*****
 5 5 0 0 0
SMALL
GASTEIGER

@<TRIPOS>ATOM
      1 C           0.0000    0.0000    0.0000 C.ar    1  UNL1        0.0439
      2 C           0.0000    0.0000    0.0000 C.ar    1  UNL1        0.1798
      3 O           0.0000    0.0000    0.0000 O.2     1  UNL1       -0.4473
      4 C           0.0000    0.0000    0.0000 C.ar    1  UNL1        0.1798
      5 C           0.0000    0.0000    0.0000 C.ar    1  UNL1        0.0439
@<TRIPOS>BOND
     1     1     2   ar
     2     2     3   ar
     3     3     4   ar
     4     4     5   ar
     5     1     5   ar
