No_5115
     RDKit          3D

 26 28  0  0  1  0  0  0  0  0999 V2000
  -44.1360   79.5090  -45.5158 C   0  0  0  0  0  0  0  0  0  0  0  0
  -42.9581   79.1477  -46.3931 C   0  0  0  0  0  0  0  0  0  0  0  0
  -43.1319   79.0021  -47.7795 C   0  0  0  0  0  0  0  0  0  0  0  0
  -42.0059   78.7291  -48.5706 C   0  0  0  0  0  0  0  0  0  0  0  0
  -40.7684   78.6006  -48.0596 N   0  0  0  0  0  0  0  0  0  0  0  0
  -40.5843   78.7283  -46.7235 C   0  0  0  0  0  0  0  0  0  0  0  0
  -39.3170   78.6026  -46.1052 N   0  0  0  0  0  0  0  0  0  0  0  0
  -38.1134   78.6639  -46.6995 C   0  0  0  0  0  0  0  0  0  0  0  0
  -37.9264   78.9516  -47.8840 O   0  0  0  0  0  0  0  0  0  0  0  0
  -36.9667   78.5622  -45.7892 C   0  0  0  0  0  0  0  0  0  0  0  0
  -35.8369   79.2921  -46.0512 N   0  0  0  0  0  0  0  0  0  0  0  0
  -34.9342   79.1526  -45.0292 C   0  0  0  0  0  0  0  0  0  0  0  0
  -33.7954   79.8839  -45.1198 O   0  0  0  0  0  0  0  0  0  0  0  0
  -32.9313   79.9560  -43.9989 C   0  0  0  0  0  0  0  0  0  0  0  0
  -33.4647   80.9316  -42.9394 C   0  0  0  0  0  0  0  0  0  0  0  0
  -34.3210   81.7727  -43.2152 O   0  0  0  0  0  0  0  0  0  0  0  0
  -32.9262   80.8174  -41.7211 N   0  0  0  0  0  0  0  0  0  0  0  0
  -33.1548   81.6875  -40.5768 C   0  0  2  0  0  0  0  0  0  0  0  0
  -31.7967   82.0348  -39.9595 C   0  0  0  0  0  0  0  0  0  0  0  0
  -34.1941   81.1398  -39.5930 C   0  0  0  0  0  0  0  0  0  0  0  0
  -33.8365   80.3373  -38.3601 C   0  0  0  0  0  0  0  0  0  0  0  0
  -34.4094   81.7315  -38.2154 C   0  0  0  0  0  0  0  0  0  0  0  0
  -35.4618   78.2691  -44.1060 C   0  0  0  0  0  0  0  0  0  0  0  0
  -34.9387   77.7986  -42.7717 C   0  0  0  0  0  0  0  0  0  0  0  0
  -36.7237   77.8585  -44.6429 C   0  0  0  0  0  0  0  0  0  0  0  0
  -41.6644   79.0027  -45.8565 C   0  0  0  0  0  0  0  0  0  0  0  0
  1  2  1  0
  2  3  2  0
  2 26  1  0
  3  4  1  0
  4  5  2  0
  5  6  1  0
  6  7  1  0
  6 26  2  0
  7  8  1  0
  8  9  2  0
  8 10  1  0
 10 11  1  0
 10 25  2  0
 11 12  1  0
 12 13  1  0
 12 23  2  0
 13 14  1  0
 14 15  1  0
 15 16  2  0
 15 17  1  0
 17 18  1  0
 18 19  1  1
 18 20  1  0
 20 21  1  0
 20 22  1  0
 21 22  1  0
 23 24  1  0
 23 25  1  0
M  END
>  <cluster>  (1) 
cluster_126463

>  <glide_score>  (1) 
-6.62507139031482

>  <mmgbsa_dG>  (1) 
-57.1671234539244

$$$$
No_1361
     RDKit          3D

 25 27  0  0  1  0  0  0  0  0999 V2000
  -34.2435   81.7927  -43.2102 O   0  0  0  0  0  0  0  0  0  0  0  0
  -33.4571   80.8916  -42.9058 C   0  0  0  0  0  0  0  0  0  0  0  0
  -32.9890   80.6810  -41.6701 N   0  0  0  0  0  0  0  0  0  0  0  0
  -33.2081   81.5232  -40.5006 C   0  0  0  0  0  0  0  0  0  0  0  0
  -34.2235   80.9749  -39.5238 C   0  0  0  0  0  0  0  0  0  0  0  0
  -33.7921   80.2699  -38.2585 C   0  0  0  0  0  0  0  0  0  0  0  0
  -34.4281   81.6365  -38.1818 C   0  0  0  0  0  0  0  0  0  0  0  0
  -32.9245   80.0240  -43.7735 N   0  0  0  0  0  0  0  0  0  0  0  0
  -33.0337   80.0780  -45.2273 C   0  0  0  0  0  0  0  0  0  0  0  0
  -33.5641   78.7586  -45.8107 C   0  0  0  0  0  0  0  0  0  0  0  0
  -35.0776   78.7357  -45.9132 C   0  0  0  0  0  0  0  0  0  0  0  0
  -35.7478   79.1532  -47.0054 C   0  0  0  0  0  0  0  0  0  0  0  0
  -37.1323   79.1314  -47.0851 N   0  0  0  0  0  0  0  0  0  0  0  0
  -37.8118   78.6683  -46.0812 C   0  0  0  0  0  0  0  0  0  0  0  0
  -39.2053   78.6164  -46.0080 N   0  0  0  0  0  0  0  0  0  0  0  0
  -40.0872   78.8233  -47.0066 C   0  0  0  0  0  0  0  0  0  0  0  0
  -39.7774   79.0023  -48.1866 O   0  0  0  0  0  0  0  0  0  0  0  0
  -41.3779   78.7477  -46.6186 N   0  0  0  0  0  0  0  0  0  0  0  0
  -41.8865   78.9449  -45.2586 C   0  0  0  0  0  0  0  0  0  0  0  0
  -43.3981   79.1400  -45.3995 C   0  0  0  0  0  0  0  0  0  0  0  0
  -43.7440   78.4903  -46.7314 C   0  0  0  0  0  0  0  0  0  0  0  0
  -42.4844   78.6960  -47.5711 C   0  0  0  0  0  0  0  0  0  0  0  0
  -37.2312   78.1924  -44.9250 O   0  0  0  0  0  0  0  0  0  0  0  0
  -35.8602   78.2044  -44.7628 C   0  0  0  0  0  0  0  0  0  0  0  0
  -35.3371   77.8125  -43.7187 O   0  0  0  0  0  0  0  0  0  0  0  0
  1  2  2  0
  2  3  1  0
  2  8  1  0
  3  4  1  0
  4  5  1  0
  5  6  1  0
  5  7  1  0
  6  7  1  0
  8  9  1  0
  9 10  1  0
 10 11  1  0
 11 12  2  0
 11 24  1  0
 12 13  1  0
 13 14  2  0
 14 15  1  0
 14 23  1  0
 15 16  1  0
 16 17  2  0
 16 18  1  0
 18 19  1  0
 18 22  1  0
 19 20  1  0
 20 21  1  0
 21 22  1  0
 23 24  1  0
 24 25  2  0
M  END
>  <cluster>  (2) 
cluster_96329

>  <glide_score>  (2) 
-7.12904625010216

>  <mmgbsa_dG>  (2) 
-54.8067653999606

$$$$
No_3176
     RDKit          3D

 23 25  0  0  1  0  0  0  0  0999 V2000
  -43.1221   79.2738  -45.1808 C   0  0  0  0  0  0  0  0  0  0  0  0
  -42.7646   79.0393  -46.6543 C   0  0  0  0  0  0  0  0  0  0  0  0
  -41.3391   78.8923  -46.9065 N   0  0  0  0  0  0  0  0  0  0  0  0
  -40.2548   79.0030  -46.0520 C   0  0  0  0  0  0  0  0  0  0  0  0
  -39.1258   78.7561  -46.7875 C   0  0  0  0  0  0  0  0  0  0  0  0
  -37.6874   78.6731  -46.3480 C   0  0  1  0  0  0  0  0  0  0  0  0
  -37.2128   77.2238  -46.2128 C   0  0  0  0  0  0  0  0  0  0  0  0
  -35.8631   77.2016  -46.7792 N   0  0  2  0  0  0  0  0  0  0  0  0
  -34.7536   77.2579  -45.7984 C   0  0  0  0  0  0  0  0  0  0  0  0
  -34.7227   76.0183  -44.9144 C   0  0  0  0  0  0  0  0  0  0  0  0
  -35.1305   76.1215  -43.5707 C   0  0  0  0  0  0  0  0  0  0  0  0
  -35.1322   74.9734  -42.7640 C   0  0  0  0  0  0  0  0  0  0  0  0
  -34.7208   73.7383  -43.3185 C   0  0  0  0  0  0  0  0  0  0  0  0
  -34.7121   72.4766  -42.4940 C   0  0  0  0  0  0  0  0  0  0  0  0
  -35.1220   72.5892  -41.2264 N   0  0  0  0  0  0  0  0  0  0  0  0
  -34.3389   71.4022  -42.9743 O   0  0  0  0  0  0  0  0  0  0  0  0
  -34.3201   73.6354  -44.6099 N   0  0  0  0  0  0  0  0  0  0  0  0
  -34.3170   74.7435  -45.3837 C   0  0  0  0  0  0  0  0  0  0  0  0
  -33.8239   74.5302  -46.8034 C   0  0  0  0  0  0  0  0  0  0  0  0
  -35.8782   78.3973  -47.8058 C   0  0  0  0  0  0  0  0  0  0  0  0
  -36.7902   79.3047  -47.2625 O   0  0  0  0  0  0  0  0  0  0  0  0
  -39.6291   78.5443  -48.1013 C   0  0  0  0  0  0  0  0  0  0  0  0
  -40.9446   78.6049  -48.1642 N   0  0  0  0  0  0  0  0  0  0  0  0
  1  2  1  0
  2  3  1  0
  3  4  1  0
  3 23  1  0
  4  5  2  0
  6  5  1  6
  5 22  1  0
  6  7  1  0
  6 21  1  0
  7  8  1  0
  8  9  1  1
  8 20  1  0
  9 10  1  0
 10 11  2  0
 10 18  1  0
 11 12  1  0
 12 13  2  0
 13 14  1  0
 13 17  1  0
 14 15  1  0
 14 16  2  0
 17 18  2  0
 18 19  1  0
 20 21  1  0
 22 23  2  0
M  CHG  1   8   1
M  END
>  <cluster>  (3) 
cluster_13728

>  <glide_score>  (3) 
-6.59113619300619

>  <mmgbsa_dG>  (3) 
-53.4250028707174

$$$$
No_3986
     RDKit          3D

 26 29  0  0  1  0  0  0  0  0999 V2000
  -43.9275   79.0392  -46.8603 C   0  0  0  0  0  0  0  0  0  0  0  0
  -42.4151   79.0028  -46.7798 C   0  0  0  0  0  0  0  0  0  0  0  0
  -41.7560   79.4024  -45.6079 C   0  0  0  0  0  0  0  0  0  0  0  0
  -40.3513   79.4025  -45.5634 C   0  0  0  0  0  0  0  0  0  0  0  0
  -39.5690   78.9698  -46.6618 C   0  0  0  0  0  0  0  0  0  0  0  0
  -38.1632   78.8911  -46.4983 N   0  0  0  0  0  0  0  0  0  0  0  0
  -37.1764   79.3630  -47.4642 C   0  0  0  0  0  0  0  0  0  0  0  0
  -36.0374   78.3298  -47.5775 C   0  0  0  0  0  0  0  0  0  0  0  0
  -35.4861   78.0654  -46.2856 O   0  0  0  0  0  0  0  0  0  0  0  0
  -36.4526   77.5487  -45.3699 C   0  0  1  0  0  0  0  0  0  0  0  0
  -35.7580   77.2389  -44.0367 C   0  0  0  0  0  0  0  0  0  0  0  0
  -35.2004   78.1293  -43.3936 O   0  0  0  0  0  0  0  0  0  0  0  0
  -35.7946   75.9615  -43.6386 N   0  0  0  0  0  0  0  0  0  0  0  0
  -35.1492   75.4046  -42.4740 C   0  0  0  0  0  0  0  0  0  0  0  0
  -34.9853   73.9067  -42.5681 C   0  0  0  0  0  0  0  0  0  0  0  0
  -35.7052   73.0281  -41.7380 C   0  0  0  0  0  0  0  0  0  0  0  0
  -35.5215   71.6405  -41.9039 C   0  0  0  0  0  0  0  0  0  0  0  0
  -34.6651   71.1104  -42.8075 N   0  0  0  0  0  0  0  0  0  0  0  0
  -33.9275   71.9734  -43.5346 C   0  0  0  0  0  0  0  0  0  0  0  0
  -34.0873   73.3639  -43.4996 C   0  0  0  0  0  0  0  0  0  0  0  0
  -37.5786   78.5870  -45.1982 C   0  0  0  0  0  0  0  0  0  0  0  0
  -40.2393   78.5729  -47.8595 C   0  0  0  0  0  0  0  0  0  0  0  0
  -39.4911   78.0115  -49.0484 C   0  0  0  0  0  0  0  0  0  0  0  0
  -40.1262   77.6351  -50.3767 C   0  0  0  0  0  0  0  0  0  0  0  0
  -39.2469   78.8583  -50.2787 C   0  0  0  0  0  0  0  0  0  0  0  0
  -41.6566   78.6026  -47.8941 C   0  0  0  0  0  0  0  0  0  0  0  0
  1  2  1  0
  2  3  2  0
  2 26  1  0
  3  4  1  0
  4  5  2  0
  5  6  1  0
  5 22  1  0
  6  7  1  0
  6 21  1  0
  7  8  1  0
  8  9  1  0
  9 10  1  0
 10 11  1  1
 10 21  1  0
 11 12  2  0
 11 13  1  0
 13 14  1  0
 14 15  1  0
 15 16  2  0
 15 20  1  0
 16 17  1  0
 17 18  2  0
 18 19  1  0
 19 20  2  0
 22 23  1  0
 22 26  2  0
 23 24  1  0
 23 25  1  0
 24 25  1  0
M  END
>  <cluster>  (4) 
cluster_72574

>  <glide_score>  (4) 
-6.87435470971815

>  <mmgbsa_dG>  (4) 
-53.0094708290417

$$$$
No_3994
     RDKit          3D

 22 23  0  0  1  0  0  0  0  0999 V2000
  -37.1506   80.3062  -44.9773 C   0  0  0  0  0  0  0  0  0  0  0  0
  -36.1794   79.1171  -44.8935 C   0  0  0  0  0  0  0  0  0  0  0  0
  -36.8046   77.7088  -45.1439 C   0  0  1  0  0  0  0  0  0  0  0  0
  -37.6062   77.6324  -46.4692 C   0  0  0  0  0  0  0  0  0  0  0  0
  -38.9380   78.2030  -46.2948 N   0  0  0  0  0  0  0  0  0  0  0  0
  -39.7664   78.6023  -47.2648 C   0  0  0  0  0  0  0  0  0  0  0  0
  -39.4101   78.7626  -48.4302 O   0  0  0  0  0  0  0  0  0  0  0  0
  -41.1717   78.7574  -46.8399 C   0  0  0  0  0  0  0  0  0  0  0  0
  -41.7236   79.0030  -45.6072 C   0  0  0  0  0  0  0  0  0  0  0  0
  -43.1452   79.1062  -45.6385 C   0  0  0  0  0  0  0  0  0  0  0  0
  -43.6611   78.9376  -46.8958 C   0  0  0  0  0  0  0  0  0  0  0  0
  -42.4068   78.6444  -48.0717 S   0  0  0  0  0  0  0  0  0  0  0  0
  -35.7974   76.6028  -45.0038 N   0  0  2  0  0  0  0  0  0  0  0  0
  -35.2607   76.4941  -43.6133 C   0  0  0  0  0  0  0  0  0  0  0  0
  -35.1222   75.0718  -43.1383 C   0  0  0  0  0  0  0  0  0  0  0  0
  -35.8323   74.5595  -42.0078 C   0  0  0  0  0  0  0  0  0  0  0  0
  -35.5223   73.2594  -41.7120 C   0  0  0  0  0  0  0  0  0  0  0  0
  -34.3714   72.6031  -42.8339 S   0  0  0  0  0  0  0  0  0  0  0  0
  -34.3224   74.1099  -43.7044 C   0  0  0  0  0  0  0  0  0  0  0  0
  -34.7277   76.5502  -46.0496 C   0  0  0  0  0  0  0  0  0  0  0  0
  -35.0441   75.6050  -47.2264 C   0  0  0  0  0  0  0  0  0  0  0  0
  -35.1218   74.2584  -46.8077 O   0  0  0  0  0  0  0  0  0  0  0  0
  1  2  1  0
  3  2  1  6
  3  4  1  0
  3 13  1  0
  4  5  1  0
  5  6  1  0
  6  7  2  0
  6  8  1  0
  8  9  2  0
  8 12  1  0
  9 10  1  0
 10 11  2  0
 11 12  1  0
 13 14  1  1
 13 20  1  0
 14 15  1  0
 15 16  1  0
 15 19  2  0
 16 17  2  0
 17 18  1  0
 18 19  1  0
 20 21  1  0
 21 22  1  0
M  CHG  1  13   1
M  END
>  <cluster>  (5) 
cluster_114790

>  <glide_score>  (5) 
-7.31356393921785

>  <mmgbsa_dG>  (5) 
-51.9091975595657

$$$$
No_2334
     RDKit          3D

 27 29  0  0  1  0  0  0  0  0999 V2000
  -44.6785   79.0027  -46.5278 C   0  0  0  0  0  0  0  0  0  0  0  0
  -43.3098   78.6711  -46.1528 N   0  0  0  0  0  0  0  0  0  0  0  0
  -42.8535   78.9816  -44.8082 C   0  0  0  0  0  0  0  0  0  0  0  0
  -42.3373   78.6567  -47.1682 C   0  0  0  0  0  0  0  0  0  0  0  0
  -40.9261   78.6026  -46.9688 C   0  0  0  0  0  0  0  0  0  0  0  0
  -40.3773   78.6027  -48.2227 C   0  0  0  0  0  0  0  0  0  0  0  0
  -39.0198   78.5800  -48.5517 N   0  0  0  0  0  0  0  0  0  0  0  0
  -37.9733   78.6541  -47.5411 C   0  0  0  0  0  0  0  0  0  0  0  0
  -37.2835   77.2977  -47.2695 C   0  0  1  0  0  0  0  0  0  0  0  0
  -36.4588   76.8579  -48.5067 C   0  0  0  0  0  0  0  0  0  0  0  0
  -35.9825   75.4781  -48.4335 N   0  0  0  0  0  0  0  0  0  0  0  0
  -35.0897   75.0028  -47.5574 C   0  0  0  0  0  0  0  0  0  0  0  0
  -34.7132   73.8328  -47.5725 O   0  0  0  0  0  0  0  0  0  0  0  0
  -34.5828   75.9581  -46.4825 C   0  0  0  0  0  0  0  0  0  0  0  0
  -35.6780   76.2631  -45.5274 N   0  0  1  0  0  0  0  0  0  0  0  0
  -35.2257   76.3775  -44.1119 C   0  0  0  0  0  0  0  0  0  0  0  0
  -35.1222   75.0458  -43.3580 C   0  0  0  0  0  0  0  0  0  0  0  0
  -34.2409   74.0077  -43.7445 C   0  0  0  0  0  0  0  0  0  0  0  0
  -34.2044   72.7811  -43.0559 C   0  0  0  0  0  0  0  0  0  0  0  0
  -35.0819   72.5570  -41.9847 C   0  0  0  0  0  0  0  0  0  0  0  0
  -35.9759   73.5704  -41.6080 C   0  0  0  0  0  0  0  0  0  0  0  0
  -35.9994   74.8044  -42.2787 C   0  0  0  0  0  0  0  0  0  0  0  0
  -36.8994   75.7431  -41.9002 F   0  0  0  0  0  0  0  0  0  0  0  0
  -36.4642   77.4544  -45.9589 C   0  0  0  0  0  0  0  0  0  0  0  0
  -41.3804   78.6547  -49.1759 N   0  0  0  0  0  0  0  0  0  0  0  0
  -41.2060   78.6909  -50.6142 C   0  0  0  0  0  0  0  0  0  0  0  0
  -42.5940   78.6891  -48.5120 C   0  0  0  0  0  0  0  0  0  0  0  0
  1  2  1  0
  2  3  1  0
  2  4  1  0
  4  5  1  0
  4 27  2  0
  5  6  2  0
  6  7  1  0
  6 25  1  0
  7  8  1  0
  9  8  1  6
  9 10  1  0
  9 24  1  0
 10 11  1  0
 11 12  1  0
 12 13  2  0
 12 14  1  0
 14 15  1  0
 15 16  1  1
 15 24  1  0
 16 17  1  0
 17 18  2  0
 17 22  1  0
 18 19  1  0
 19 20  2  0
 20 21  1  0
 21 22  2  0
 22 23  1  0
 25 26  1  0
 25 27  1  0
M  CHG  1  15   1
M  END
>  <cluster>  (6) 
cluster_123682

>  <glide_score>  (6) 
-6.51728455391434

>  <mmgbsa_dG>  (6) 
-51.7023808159138

$$$$
No_1280
     RDKit          3D

 22 23  0  0  1  0  0  0  0  0999 V2000
  -42.1478   78.1007  -50.2116 C   0  0  0  0  0  0  0  0  0  0  0  0
  -41.2247   78.2326  -49.1399 O   0  0  0  0  0  0  0  0  0  0  0  0
  -41.7040   78.5353  -47.8777 C   0  0  0  0  0  0  0  0  0  0  0  0
  -43.0493   78.6024  -47.7161 N   0  0  0  0  0  0  0  0  0  0  0  0
  -43.5420   78.8829  -46.4954 C   0  0  0  0  0  0  0  0  0  0  0  0
  -42.7250   79.0912  -45.3724 C   0  0  0  0  0  0  0  0  0  0  0  0
  -41.3298   79.0146  -45.5347 C   0  0  0  0  0  0  0  0  0  0  0  0
  -40.7918   78.7249  -46.8073 C   0  0  0  0  0  0  0  0  0  0  0  0
  -39.3032   78.6685  -47.0256 C   0  0  0  0  0  0  0  0  0  0  0  0
  -38.8057   79.0026  -48.0996 O   0  0  0  0  0  0  0  0  0  0  0  0
  -38.5619   78.2026  -46.0104 N   0  0  0  0  0  0  0  0  0  0  0  0
  -37.1372   77.8595  -46.0800 C   0  0  2  0  0  0  0  0  0  0  0  0
  -36.9158   76.6461  -47.0110 C   0  0  0  0  0  0  0  0  0  0  0  0
  -36.6396   77.6289  -44.6385 C   0  0  0  0  0  0  0  0  0  0  0  0
  -35.1652   77.1855  -44.4662 C   0  0  0  0  0  0  0  0  0  0  0  0
  -35.0581   75.8027  -43.8933 C   0  0  0  0  0  0  0  0  0  0  0  0
  -34.3302   74.8535  -44.3777 N   0  0  0  0  0  0  0  0  0  0  0  0
  -34.4516   73.5449  -43.5683 C   0  0  0  0  0  0  0  0  0  0  0  0
  -33.9222   72.5234  -44.0068 O   0  0  0  0  0  0  0  0  0  0  0  0
  -35.2262   73.7676  -42.4957 N   0  0  0  0  0  0  0  0  0  0  0  0
  -35.6051   72.7604  -41.5194 C   0  0  0  0  0  0  0  0  0  0  0  0
  -35.9223   75.3292  -42.4077 S   0  0  0  0  0  0  0  0  0  0  0  0
  1  2  1  0
  2  3  1  0
  3  4  2  0
  3  8  1  0
  4  5  1  0
  5  6  2  0
  6  7  1  0
  7  8  2  0
  8  9  1  0
  9 10  2  0
  9 11  1  0
 11 12  1  0
 12 13  1  6
 12 14  1  0
 14 15  1  0
 15 16  1  0
 16 17  2  0
 16 22  1  0
 17 18  1  0
 18 19  2  0
 18 20  1  0
 20 21  1  0
 20 22  1  0
M  CHG  1  17   1
M  END
>  <cluster>  (7) 
cluster_22384

>  <glide_score>  (7) 
-7.79336098177004

>  <mmgbsa_dG>  (7) 
-51.5554197345555

$$$$
No_3062
     RDKit          3D

 25 27  0  0  1  0  0  0  0  0999 V2000
  -35.6603   71.2421  -41.4212 C   0  0  0  0  0  0  0  0  0  0  0  0
  -35.0521   72.1850  -42.4018 C   0  0  0  0  0  0  0  0  0  0  0  0
  -34.1160   71.8078  -43.2786 N   0  0  0  0  0  0  0  0  0  0  0  0
  -33.8306   72.9325  -44.0190 N   0  0  0  0  0  0  0  0  0  0  0  0
  -34.6315   73.8813  -43.5237 C   0  0  0  0  0  0  0  0  0  0  0  0
  -34.7222   75.2164  -44.0003 N   0  0  0  0  0  0  0  0  0  0  0  0
  -34.3652   75.6818  -45.2132 C   0  0  0  0  0  0  0  0  0  0  0  0
  -33.8513   74.9743  -46.0802 O   0  0  0  0  0  0  0  0  0  0  0  0
  -34.5984   77.1919  -45.4979 C   0  0  0  0  0  0  0  0  0  0  0  0
  -34.8474   77.4815  -46.9961 C   0  0  0  0  0  0  0  0  0  0  0  0
  -36.2374   76.9949  -47.4578 C   0  0  0  0  0  0  0  0  0  0  0  0
  -37.3071   77.5757  -46.6269 N   0  0  0  0  0  0  0  0  0  0  0  0
  -38.3665   78.2202  -47.1878 C   0  0  0  0  0  0  0  0  0  0  0  0
  -38.3713   78.6176  -48.3533 O   0  0  0  0  0  0  0  0  0  0  0  0
  -39.4269   78.3573  -46.3707 N   0  0  0  0  0  0  0  0  0  0  0  0
  -40.7779   78.6685  -46.6795 C   0  0  0  0  0  0  0  0  0  0  0  0
  -41.6294   79.0029  -45.6078 C   0  0  0  0  0  0  0  0  0  0  0  0
  -42.9877   79.2640  -45.8705 C   0  0  0  0  0  0  0  0  0  0  0  0
  -43.5235   79.2045  -47.1056 N   0  0  0  0  0  0  0  0  0  0  0  0
  -42.7082   78.8913  -48.1326 C   0  0  0  0  0  0  0  0  0  0  0  0
  -41.3385   78.6029  -47.9759 C   0  0  0  0  0  0  0  0  0  0  0  0
  -37.1213   77.3013  -45.1857 C   0  0  0  0  0  0  0  0  0  0  0  0
  -35.7609   77.8260  -44.6970 C   0  0  0  0  0  0  0  0  0  0  0  0
  -35.4189   73.4798  -42.5123 N   0  0  0  0  0  0  0  0  0  0  0  0
  -36.4172   74.2455  -41.7943 C   0  0  0  0  0  0  0  0  0  0  0  0
  1  2  1  0
  2 24  1  0
  2  3  2  0
  3  4  1  0
  4  5  2  0
  5  6  1  0
  5 24  1  0
  6  7  1  0
  7  8  2  0
  7  9  1  0
  9 10  1  0
  9 23  1  0
 10 11  1  0
 11 12  1  0
 12 13  1  0
 12 22  1  0
 13 14  2  0
 13 15  1  0
 15 16  1  0
 16 17  2  0
 16 21  1  0
 17 18  1  0
 18 19  2  0
 19 20  1  0
 20 21  2  0
 22 23  1  0
 24 25  1  0
M  END
>  <cluster>  (8) 
cluster_108582

>  <glide_score>  (8) 
-6.74334804607726

>  <mmgbsa_dG>  (8) 
-51.1614338361251

$$$$
No_2018
     RDKit          3D

 23 24  0  0  1  0  0  0  0  0999 V2000
  -36.5304   75.8073  -48.0342 C   0  0  0  0  0  0  0  0  0  0  0  0
  -36.0898   77.0118  -47.1841 C   0  0  2  0  0  0  0  0  0  0  0  0
  -35.9223   76.5605  -45.8049 N   0  0  0  0  0  0  0  0  0  0  0  0
  -35.2664   77.1943  -44.8225 C   0  0  0  0  0  0  0  0  0  0  0  0
  -34.7062   78.2759  -44.9779 O   0  0  0  0  0  0  0  0  0  0  0  0
  -35.2650   76.5101  -43.4497 C   0  0  2  0  0  0  0  0  0  0  0  0
  -34.7221   75.0661  -43.4662 C   0  0  0  0  0  0  0  0  0  0  0  0
  -35.5245   74.4227  -42.3682 C   0  0  0  0  0  0  0  0  0  0  0  0
  -35.3668   73.2740  -41.9619 O   0  0  0  0  0  0  0  0  0  0  0  0
  -36.5850   75.3931  -41.8912 C   0  0  0  0  0  0  0  0  0  0  0  0
  -36.6193   76.4840  -42.8560 N   0  0  0  0  0  0  0  0  0  0  0  0
  -37.1656   78.1090  -47.2914 C   0  0  0  0  0  0  0  0  0  0  0  0
  -36.9780   79.1446  -47.9307 O   0  0  0  0  0  0  0  0  0  0  0  0
  -38.5128   77.8570  -46.5948 C   0  0  0  0  0  0  0  0  0  0  0  0
  -39.3314   79.0520  -46.4078 N   0  0  0  0  0  0  0  0  0  0  0  0
  -38.8830   80.0466  -45.4383 C   0  0  0  0  0  0  0  0  0  0  0  0
  -40.7249   78.8926  -46.5583 C   0  0  0  0  0  0  0  0  0  0  0  0
  -41.5906   79.0056  -45.4421 C   0  0  0  0  0  0  0  0  0  0  0  0
  -42.9875   78.9068  -45.5914 C   0  0  0  0  0  0  0  0  0  0  0  0
  -43.5418   78.6834  -46.8624 C   0  0  0  0  0  0  0  0  0  0  0  0
  -42.6968   78.5525  -47.9790 C   0  0  0  0  0  0  0  0  0  0  0  0
  -41.2980   78.6504  -47.8347 C   0  0  0  0  0  0  0  0  0  0  0  0
  -40.3214   78.5325  -49.2573 Cl  0  0  0  0  0  0  0  0  0  0  0  0
  2  1  1  6
  2  3  1  0
  2 12  1  0
  3  4  1  0
  4  5  2  0
  6  4  1  6
  6  7  1  0
  6 11  1  0
  7  8  1  0
  8  9  2  0
  8 10  1  0
 10 11  1  0
 12 13  2  0
 12 14  1  0
 14 15  1  0
 15 16  1  0
 15 17  1  0
 17 18  2  0
 17 22  1  0
 18 19  1  0
 19 20  2  0
 20 21  1  0
 21 22  2  0
 22 23  1  0
M  END
>  <cluster>  (9) 
cluster_107538

>  <glide_score>  (9) 
-6.78946196196252

>  <mmgbsa_dG>  (9) 
-50.9400456860094

$$$$
No_610
     RDKit          3D

 25 28  0  0  1  0  0  0  0  0999 V2000
  -35.0908   72.3676  -41.4878 C   0  0  0  0  0  0  0  0  0  0  0  0
  -35.8502   73.5987  -41.6078 N   0  0  0  0  0  0  0  0  0  0  0  0
  -35.4997   74.6066  -42.4114 C   0  0  0  0  0  0  0  0  0  0  0  0
  -34.5370   74.5332  -43.1793 O   0  0  0  0  0  0  0  0  0  0  0  0
  -36.3614   75.8721  -42.3307 C   0  0  0  0  0  0  0  0  0  0  0  0
  -35.8754   76.9916  -43.2042 C   0  0  0  0  0  0  0  0  0  0  0  0
  -34.7404   77.7617  -43.2089 C   0  0  0  0  0  0  0  0  0  0  0  0
  -34.8620   78.6807  -44.2874 C   0  0  0  0  0  0  0  0  0  0  0  0
  -36.0959   78.4341  -44.8083 C   0  0  0  0  0  0  0  0  0  0  0  0
  -36.7439   79.2170  -45.7624 N   0  0  0  0  0  0  0  0  0  0  0  0
  -36.1083   79.5100  -47.0368 C   0  0  0  0  0  0  0  0  0  0  0  0
  -36.8151   78.7334  -48.1610 C   0  0  0  0  0  0  0  0  0  0  0  0
  -38.2169   79.0013  -48.1273 O   0  0  0  0  0  0  0  0  0  0  0  0
  -38.8345   78.5617  -46.9175 C   0  0  2  0  0  0  0  0  0  0  0  0
  -40.3490   78.7223  -46.9707 C   0  0  0  0  0  0  0  0  0  0  0  0
  -41.0402   78.6027  -48.2093 C   0  0  0  0  0  0  0  0  0  0  0  0
  -42.4505   78.7247  -48.2778 C   0  0  0  0  0  0  0  0  0  0  0  0
  -43.1438   78.9252  -47.0746 C   0  0  0  0  0  0  0  0  0  0  0  0
  -42.4818   79.0023  -45.8748 C   0  0  0  0  0  0  0  0  0  0  0  0
  -41.0910   78.9358  -45.7816 C   0  0  0  0  0  0  0  0  0  0  0  0
  -43.4811   79.0868  -44.7732 C   0  0  0  0  0  0  0  0  0  0  0  0
  -44.7221   79.4025  -45.4163 O   0  0  0  0  0  0  0  0  0  0  0  0
  -44.6168   79.0509  -46.8066 C   0  0  0  0  0  0  0  0  0  0  0  0
  -38.1910   79.3322  -45.7428 C   0  0  0  0  0  0  0  0  0  0  0  0
  -36.7301   77.4045  -44.1846 O   0  0  0  0  0  0  0  0  0  0  0  0
  1  2  1  0
  2  3  1  0
  3  4  2  0
  3  5  1  0
  5  6  1  0
  6  7  2  0
  6 25  1  0
  7  8  1  0
  8  9  2  0
  9 10  1  0
  9 25  1  0
 10 11  1  0
 10 24  1  0
 11 12  1  0
 12 13  1  0
 13 14  1  0
 14 15  1  6
 14 24  1  0
 15 16  2  0
 15 20  1  0
 16 17  1  0
 17 18  2  0
 18 19  1  0
 18 23  1  0
 19 20  2  0
 19 21  1  0
 21 22  1  0
 22 23  1  0
M  END
>  <cluster>  (10) 
cluster_90302

>  <glide_score>  (10) 
-7.08476042478338

>  <mmgbsa_dG>  (10) 
-50.6655451583065

$$$$
No_1275
     RDKit          3D

 24 26  0  0  1  0  0  0  0  0999 V2000
  -42.6461   79.0584  -49.2439 C   0  0  0  0  0  0  0  0  0  0  0  0
  -42.7687   79.0388  -47.7477 C   0  0  0  0  0  0  0  0  0  0  0  0
  -44.0276   79.1075  -47.0784 C   0  0  0  0  0  0  0  0  0  0  0  0
  -43.9268   79.1171  -45.7166 C   0  0  0  0  0  0  0  0  0  0  0  0
  -42.2785   79.0039  -45.2078 S   0  0  0  0  0  0  0  0  0  0  0  0
  -41.7143   78.9971  -46.8622 C   0  0  0  0  0  0  0  0  0  0  0  0
  -40.2476   78.9990  -47.0723 C   0  0  0  0  0  0  0  0  0  0  0  0
  -39.7766   79.2364  -48.1840 O   0  0  0  0  0  0  0  0  0  0  0  0
  -39.4652   78.7516  -46.0084 N   0  0  0  0  0  0  0  0  0  0  0  0
  -38.0252   78.9740  -45.9735 C   0  0  0  0  0  0  0  0  0  0  0  0
  -37.1779   77.7063  -46.2197 C   0  0  1  0  0  0  0  0  0  0  0  0
  -37.4784   77.0455  -47.5911 C   0  0  0  0  0  0  0  0  0  0  0  0
  -36.8330   75.6721  -47.8323 C   0  0  0  0  0  0  0  0  0  0  0  0
  -35.3113   75.6165  -47.6261 C   0  0  0  0  0  0  0  0  0  0  0  0
  -34.9902   75.6452  -46.1756 N   0  0  1  0  0  0  0  0  0  0  0  0
  -33.9356   74.6873  -45.7592 C   0  0  0  0  0  0  0  0  0  0  0  0
  -34.3221   73.9925  -44.4897 C   0  0  0  0  0  0  0  0  0  0  0  0
  -34.6609   74.4993  -43.2677 C   0  0  0  0  0  0  0  0  0  0  0  0
  -34.8298   73.3707  -42.5032 N   0  0  0  0  0  0  0  0  0  0  0  0
  -35.1597   73.3013  -41.1131 C   0  0  0  0  0  0  0  0  0  0  0  0
  -34.6183   72.2379  -43.2027 N   0  0  0  0  0  0  0  0  0  0  0  0
  -34.3223   72.6028  -44.4074 N   0  0  0  0  0  0  0  0  0  0  0  0
  -34.7468   77.0042  -45.6223 C   0  0  0  0  0  0  0  0  0  0  0  0
  -35.6894   78.1007  -46.1366 C   0  0  0  0  0  0  0  0  0  0  0  0
  1  2  1  0
  2  3  1  0
  2  6  2  0
  3  4  2  0
  4  5  1  0
  5  6  1  0
  6  7  1  0
  7  8  2  0
  7  9  1  0
  9 10  1  0
 11 10  1  6
 11 12  1  0
 11 24  1  0
 12 13  1  0
 13 14  1  0
 14 15  1  0
 15 16  1  6
 15 23  1  0
 16 17  1  0
 17 18  2  0
 17 22  1  0
 18 19  1  0
 19 20  1  0
 19 21  1  0
 21 22  2  0
 23 24  1  0
M  CHG  1  15   1
M  END
>  <cluster>  (11) 
cluster_64587

>  <glide_score>  (11) 
-7.39900208524531

>  <mmgbsa_dG>  (11) 
-50.4298001872303

$$$$
No_3755
     RDKit          3D

 22 24  0  0  1  0  0  0  0  0999 V2000
  -37.2985   70.3197  -51.3307 C   0  0  0  0  0  0  0  0  0  0  0  0
  -38.2048   71.4059  -51.4331 O   0  0  0  0  0  0  0  0  0  0  0  0
  -37.5986   72.6745  -51.2292 C   0  0  0  0  0  0  0  0  0  0  0  0
  -37.4157   72.9792  -49.7279 C   0  0  0  0  0  0  0  0  0  0  0  0
  -37.0570   74.3589  -49.3846 N   0  0  0  0  0  0  0  0  0  0  0  0
  -37.9806   75.3549  -49.9489 C   0  0  0  0  0  0  0  0  0  0  0  0
  -37.8316   76.7907  -49.4157 C   0  0  0  0  0  0  0  0  0  0  0  0
  -38.3384   77.7065  -50.0655 O   0  0  0  0  0  0  0  0  0  0  0  0
  -37.1819   76.9932  -48.2458 N   0  0  0  0  0  0  0  0  0  0  0  0
  -37.0939   78.3236  -47.6314 C   0  0  0  0  0  0  0  0  0  0  0  0
  -38.3102   78.6883  -46.8359 C   0  0  0  0  0  0  0  0  0  0  0  0
  -38.2082   79.2219  -45.6223 N   0  0  0  0  0  0  0  0  0  0  0  0
  -39.5053   79.4027  -45.2934 N   0  0  0  0  0  0  0  0  0  0  0  0
  -40.2989   78.9775  -46.2801 C   0  0  0  0  0  0  0  0  0  0  0  0
  -41.7540   79.0027  -46.2408 C   0  0  0  0  0  0  0  0  0  0  0  0
  -42.5580   79.4028  -45.2074 C   0  0  0  0  0  0  0  0  0  0  0  0
  -43.9408   79.4011  -45.5339 C   0  0  0  0  0  0  0  0  0  0  0  0
  -44.1805   78.9776  -46.8116 C   0  0  0  0  0  0  0  0  0  0  0  0
  -42.6991   78.6014  -47.6537 S   0  0  0  0  0  0  0  0  0  0  0  0
  -39.5838   78.5460  -47.3116 N   0  0  0  0  0  0  0  0  0  0  0  0
  -36.4699   75.9240  -47.5378 C   0  0  0  0  0  0  0  0  0  0  0  0
  -36.9499   74.5234  -47.9382 C   0  0  0  0  0  0  0  0  0  0  0  0
  1  2  1  0
  2  3  1  0
  3  4  1  0
  4  5  1  0
  5  6  1  0
  5 22  1  0
  6  7  1  0
  7  8  2  0
  7  9  1  0
  9 10  1  0
  9 21  1  0
 10 11  1  0
 11 12  2  0
 11 20  1  0
 12 13  1  0
 13 14  1  0
 14 15  1  0
 14 20  2  0
 15 16  2  0
 15 19  1  0
 16 17  1  0
 17 18  2  0
 18 19  1  0
 21 22  1  0
M  END
>  <cluster>  (12) 
cluster_56515

>  <glide_score>  (12) 
-6.79385459344017

>  <mmgbsa_dG>  (12) 
-50.2684875838313

$$$$
No_4979
     RDKit          3D

 22 23  0  0  1  0  0  0  0  0999 V2000
  -44.3427   79.4030  -47.1970 C   0  0  0  0  0  0  0  0  0  0  0  0
  -42.9476   79.0889  -47.4050 N   0  0  0  0  0  0  0  0  0  0  0  0
  -42.2938   79.0024  -48.5761 C   0  0  0  0  0  0  0  0  0  0  0  0
  -41.0021   78.7050  -48.4676 N   0  0  0  0  0  0  0  0  0  0  0  0
  -40.8224   78.6031  -47.0920 C   0  0  0  0  0  0  0  0  0  0  0  0
  -39.6407   78.2474  -46.4078 N   0  0  0  0  0  0  0  0  0  0  0  0
  -38.3853   78.2024  -46.8740 C   0  0  0  0  0  0  0  0  0  0  0  0
  -38.0035   78.7347  -47.9143 O   0  0  0  0  0  0  0  0  0  0  0  0
  -37.4089   77.4389  -45.9764 C   0  0  0  0  0  0  0  0  0  0  0  0
  -36.0484   78.1222  -45.7393 C   0  0  0  0  0  0  0  0  0  0  0  0
  -35.4776   77.7360  -44.3717 C   0  0  0  0  0  0  0  0  0  0  0  0
  -35.1223   78.6127  -43.5837 O   0  0  0  0  0  0  0  0  0  0  0  0
  -35.4162   76.4238  -44.0918 N   0  0  0  0  0  0  0  0  0  0  0  0
  -35.0104   75.8674  -42.8095 C   0  0  0  0  0  0  0  0  0  0  0  0
  -34.9261   74.3643  -42.8301 C   0  0  0  0  0  0  0  0  0  0  0  0
  -34.3221   73.5242  -43.8110 C   0  0  0  0  0  0  0  0  0  0  0  0
  -34.4352   72.2324  -43.5409 N   0  0  0  0  0  0  0  0  0  0  0  0
  -35.1217   72.2099  -42.3763 N   0  0  0  0  0  0  0  0  0  0  0  0
  -35.4758   70.9454  -41.7741 C   0  0  0  0  0  0  0  0  0  0  0  0
  -35.4130   73.4752  -41.9158 C   0  0  0  0  0  0  0  0  0  0  0  0
  -42.0049   78.8174  -46.4242 C   0  0  0  0  0  0  0  0  0  0  0  0
  -42.3235   78.7907  -44.9661 C   0  0  0  0  0  0  0  0  0  0  0  0
  1  2  1  0
  2  3  1  0
  2 21  1  0
  3  4  2  0
  4  5  1  0
  5  6  1  0
  5 21  2  0
  6  7  1  0
  7  8  2  0
  7  9  1  0
  9 10  1  0
 10 11  1  0
 11 12  2  0
 11 13  1  0
 13 14  1  0
 14 15  1  0
 15 16  1  0
 15 20  2  0
 16 17  2  0
 17 18  1  0
 18 19  1  0
 18 20  1  0
 21 22  1  0
M  END
>  <cluster>  (13) 
cluster_31359

>  <glide_score>  (13) 
-6.78840851746624

>  <mmgbsa_dG>  (13) 
-50.225638889955

$$$$
No_1822
     RDKit          3D

 23 25  0  0  1  0  0  0  0  0999 V2000
  -43.4445   79.1493  -44.8088 C   0  0  0  0  0  0  0  0  0  0  0  0
  -43.6168   79.0469  -46.2597 N   0  0  0  0  0  0  0  0  0  0  0  0
  -44.9800   79.0072  -46.8030 C   0  0  0  0  0  0  0  0  0  0  0  0
  -42.5148   78.8876  -47.0816 C   0  0  0  0  0  0  0  0  0  0  0  0
  -42.4437   78.7292  -48.4589 N   0  0  0  0  0  0  0  0  0  0  0  0
  -41.0290   78.6262  -48.3259 C   0  0  0  0  0  0  0  0  0  0  0  0
  -39.8685   78.4734  -49.0791 C   0  0  0  0  0  0  0  0  0  0  0  0
  -38.6872   78.4681  -48.4087 N   0  0  0  0  0  0  0  0  0  0  0  0
  -38.6454   78.6026  -47.0437 C   0  0  0  0  0  0  0  0  0  0  0  0
  -37.2422   78.5912  -46.4375 C   0  0  1  0  0  0  0  0  0  0  0  0
  -36.7272   80.0033  -46.1419 C   0  0  0  0  0  0  0  0  0  0  0  0
  -35.3208   79.9422  -45.5291 C   0  0  0  0  0  0  0  0  0  0  0  0
  -35.3249   79.1803  -44.2649 N   0  0  0  0  0  0  0  0  0  0  0  0
  -34.0038   79.3033  -43.5852 C   0  0  0  0  0  0  0  0  0  0  0  0
  -33.7366   80.6449  -42.8759 C   0  0  0  0  0  0  0  0  0  0  0  0
  -34.3183   81.6805  -43.2077 O   0  0  0  0  0  0  0  0  0  0  0  0
  -32.8813   80.6027  -41.8476 N   0  0  0  0  0  0  0  0  0  0  0  0
  -32.5430   81.7337  -40.9970 C   0  0  0  0  0  0  0  0  0  0  0  0
  -35.7052   77.7766  -44.5498 C   0  0  1  0  0  0  0  0  0  0  0  0
  -35.7152   76.8715  -43.2944 C   0  0  0  0  0  0  0  0  0  0  0  0
  -37.1215   77.7468  -45.1620 C   0  0  0  0  0  0  0  0  0  0  0  0
  -39.7942   78.8042  -46.2226 C   0  0  0  0  0  0  0  0  0  0  0  0
  -41.0341   78.7973  -46.8698 C   0  0  0  0  0  0  0  0  0  0  0  0
  1  2  1  0
  2  3  1  0
  2  4  1  0
  4  5  2  0
  4 23  1  0
  5  6  1  0
  6  7  1  0
  6 23  2  0
  7  8  2  0
  8  9  1  0
 10  9  1  1
  9 22  2  0
 10 11  1  0
 10 21  1  0
 11 12  1  0
 12 13  1  0
 13 14  1  0
 13 19  1  0
 14 15  1  0
 15 16  2  0
 15 17  1  0
 17 18  1  0
 19 20  1  1
 19 21  1  0
 22 23  1  0
M  CHG  1   5   1
M  END
>  <cluster>  (14) 
cluster_102066

>  <glide_score>  (14) 
-6.9669143719245

>  <mmgbsa_dG>  (14) 
-50.0770208969625

$$$$
No_647
     RDKit          3D

 23 25  0  0  1  0  0  0  0  0999 V2000
  -44.2233   79.2473  -47.0895 C   0  0  0  0  0  0  0  0  0  0  0  0
  -42.7356   79.1089  -46.8289 C   0  0  0  0  0  0  0  0  0  0  0  0
  -42.2403   79.4028  -45.5421 C   0  0  0  0  0  0  0  0  0  0  0  0
  -40.8660   79.2939  -45.2615 C   0  0  0  0  0  0  0  0  0  0  0  0
  -39.9655   78.8767  -46.2607 C   0  0  0  0  0  0  0  0  0  0  0  0
  -38.6233   78.6028  -45.8848 N   0  0  0  0  0  0  0  0  0  0  0  0
  -37.5488   78.5129  -46.6913 C   0  0  0  0  0  0  0  0  0  0  0  0
  -37.5040   79.0031  -47.8186 O   0  0  0  0  0  0  0  0  0  0  0  0
  -36.3321   77.7461  -46.1655 C   0  0  0  0  0  0  0  0  0  0  0  0
  -35.7352   78.3987  -44.9490 C   0  0  0  0  0  0  0  0  0  0  0  0
  -35.3099   79.6694  -44.8642 N   0  0  0  0  0  0  0  0  0  0  0  0
  -34.7222   79.8052  -43.6076 N   0  0  0  0  0  0  0  0  0  0  0  0
  -34.8283   78.6025  -43.0353 C   0  0  0  0  0  0  0  0  0  0  0  0
  -35.4792   77.7311  -43.8129 N   0  0  0  0  0  0  0  0  0  0  0  0
  -35.8193   76.3888  -43.5184 N   0  0  0  0  0  0  0  0  0  0  0  0
  -36.6144   76.1778  -42.3220 C   0  0  0  0  0  0  0  0  0  0  0  0
  -36.6443   74.6589  -42.2137 C   0  0  0  0  0  0  0  0  0  0  0  0
  -35.3080   74.2008  -42.7920 C   0  0  0  0  0  0  0  0  0  0  0  0
  -34.7141   75.4498  -43.4451 C   0  0  0  0  0  0  0  0  0  0  0  0
  -40.4573   78.6032  -47.5561 C   0  0  0  0  0  0  0  0  0  0  0  0
  -41.8329   78.6986  -47.8419 C   0  0  0  0  0  0  0  0  0  0  0  0
  -42.3018   78.3155  -49.2323 C   0  0  0  0  0  0  0  0  0  0  0  0
  -42.3218   79.4026  -50.1285 O   0  0  0  0  0  0  0  0  0  0  0  0
  1  2  1  0
  2  3  2  0
  2 21  1  0
  3  4  1  0
  4  5  2  0
  5  6  1  0
  5 20  1  0
  6  7  1  0
  7  8  2  0
  7  9  1  0
  9 10  1  0
 10 11  2  0
 10 14  1  0
 11 12  1  0
 12 13  2  0
 13 14  1  0
 14 15  1  0
 15 16  1  0
 15 19  1  0
 16 17  1  0
 17 18  1  0
 18 19  1  0
 20 21  2  0
 21 22  1  0
 22 23  1  0
M  END
>  <cluster>  (15) 
cluster_37579

>  <glide_score>  (15) 
-7.15453312132847

>  <mmgbsa_dG>  (15) 
-49.9539310902474

$$$$
No_5036
     RDKit          3D

 25 28  0  0  1  0  0  0  0  0999 V2000
  -32.8357   81.2287  -41.0040 C   0  0  0  0  0  0  0  0  0  0  0  0
  -33.1195   81.2753  -42.5012 C   0  0  0  0  0  0  0  0  0  0  0  0
  -33.6860   82.2535  -42.9864 O   0  0  0  0  0  0  0  0  0  0  0  0
  -32.7285   80.2041  -43.2076 N   0  0  0  0  0  0  0  0  0  0  0  0
  -32.9173   79.9328  -44.6294 C   0  0  2  0  0  0  0  0  0  0  0  0
  -32.1693   80.8986  -45.5600 C   0  0  0  0  0  0  0  0  0  0  0  0
  -33.3742   80.7753  -46.5010 C   0  0  0  0  0  0  0  0  0  0  0  0
  -34.1209   80.3847  -45.3132 N   0  0  0  0  0  0  0  0  0  0  0  0
  -35.1130   79.3958  -45.4971 C   0  0  0  0  0  0  0  0  0  0  0  0
  -35.5645   78.4325  -44.6387 C   0  0  0  0  0  0  0  0  0  0  0  0
  -36.5600   77.7098  -45.3478 C   0  0  0  0  0  0  0  0  0  0  0  0
  -36.6493   78.2898  -46.5835 C   0  0  0  0  0  0  0  0  0  0  0  0
  -37.4640   77.9724  -47.7954 C   0  0  0  0  0  0  0  0  0  0  0  0
  -38.7474   78.6760  -47.9101 N   0  0  0  0  0  0  0  0  0  0  0  0
  -39.4255   78.1078  -49.0783 C   0  0  0  0  0  0  0  0  0  0  0  0
  -40.7896   78.7763  -49.3215 C   0  0  0  0  0  0  0  0  0  0  0  0
  -41.6421   78.8429  -48.0686 C   0  0  0  0  0  0  0  0  0  0  0  0
  -43.0387   79.0071  -48.1557 C   0  0  0  0  0  0  0  0  0  0  0  0
  -43.8070   79.1535  -46.9838 C   0  0  0  0  0  0  0  0  0  0  0  0
  -43.1790   79.1480  -45.7251 C   0  0  0  0  0  0  0  0  0  0  0  0
  -43.9206   79.2775  -44.6002 F   0  0  0  0  0  0  0  0  0  0  0  0
  -41.7838   78.9819  -45.6347 C   0  0  0  0  0  0  0  0  0  0  0  0
  -41.0176   78.7985  -46.8042 C   0  0  0  0  0  0  0  0  0  0  0  0
  -39.5435   78.4509  -46.6980 C   0  0  0  0  0  0  0  0  0  0  0  0
  -35.7804   79.3320  -46.6839 O   0  0  0  0  0  0  0  0  0  0  0  0
  1  2  1  0
  2  3  2  0
  2  4  1  0
  5  4  1  1
  5  6  1  0
  5  8  1  0
  6  7  1  0
  7  8  1  0
  8  9  1  0
  9 10  2  0
  9 25  1  0
 10 11  1  0
 11 12  2  0
 12 13  1  0
 12 25  1  0
 13 14  1  0
 14 15  1  0
 14 24  1  0
 15 16  1  0
 16 17  1  0
 17 18  2  0
 17 23  1  0
 18 19  1  0
 19 20  2  0
 20 21  1  0
 20 22  1  0
 22 23  2  0
 23 24  1  0
M  END
>  <cluster>  (16) 
cluster_100004

>  <glide_score>  (16) 
-6.8457580907995

>  <mmgbsa_dG>  (16) 
-49.889406729344

$$$$
No_4230
     RDKit          3D

 23 25  0  0  1  0  0  0  0  0999 V2000
  -40.1553   78.5036  -50.9163 C   0  0  0  0  0  0  0  0  0  0  0  0
  -40.5640   78.6066  -49.4610 C   0  0  0  0  0  0  0  0  0  0  0  0
  -41.9315   78.7105  -49.1193 C   0  0  0  0  0  0  0  0  0  0  0  0
  -42.2747   78.8119  -47.7612 C   0  0  0  0  0  0  0  0  0  0  0  0
  -41.3021   78.8104  -46.7691 C   0  0  0  0  0  0  0  0  0  0  0  0
  -39.9332   78.6865  -47.0801 C   0  0  0  0  0  0  0  0  0  0  0  0
  -39.0102   78.6021  -46.0077 N   0  0  0  0  0  0  0  0  0  0  0  0
  -37.6681   78.6340  -46.0292 C   0  0  0  0  0  0  0  0  0  0  0  0
  -36.9832   79.1300  -46.9214 O   0  0  0  0  0  0  0  0  0  0  0  0
  -37.1670   78.0892  -44.9139 N   0  0  0  0  0  0  0  0  0  0  0  0
  -35.7678   77.9890  -44.5130 C   0  0  0  0  0  0  0  0  0  0  0  0
  -35.4978   76.7505  -43.6138 C   0  0  1  0  0  0  0  0  0  0  0  0
  -36.7393   76.2140  -42.8865 C   0  0  0  0  0  0  0  0  0  0  0  0
  -36.3630   75.1127  -41.8883 C   0  0  0  0  0  0  0  0  0  0  0  0
  -35.4041   74.1334  -42.4178 N   0  0  0  0  0  0  0  0  0  0  0  0
  -35.2277   72.9329  -41.5990 C   0  0  0  0  0  0  0  0  0  0  0  0
  -34.7217   74.2818  -43.5808 C   0  0  0  0  0  0  0  0  0  0  0  0
  -33.9864   73.3971  -44.0310 O   0  0  0  0  0  0  0  0  0  0  0  0
  -34.8838   75.5835  -44.4010 C   0  0  0  0  0  0  0  0  0  0  0  0
  -39.5722   78.5933  -48.4491 C   0  0  0  0  0  0  0  0  0  0  0  0
  -41.9162   78.9713  -45.4017 C   0  0  0  0  0  0  0  0  0  0  0  0
  -43.4164   79.2078  -45.6855 C   0  0  0  0  0  0  0  0  0  0  0  0
  -43.6594   78.9424  -47.1880 C   0  0  0  0  0  0  0  0  0  0  0  0
  1  2  1  0
  2  3  2  0
  2 20  1  0
  3  4  1  0
  4  5  2  0
  4 23  1  0
  5  6  1  0
  5 21  1  0
  6  7  1  0
  6 20  2  0
  7  8  1  0
  8  9  2  0
  8 10  1  0
 10 11  1  0
 12 11  1  6
 12 13  1  0
 12 19  1  0
 13 14  1  0
 14 15  1  0
 15 16  1  0
 15 17  1  0
 17 18  2  0
 17 19  1  0
 21 22  1  0
 22 23  1  0
M  END
>  <cluster>  (17) 
cluster_62266

>  <glide_score>  (17) 
-7.08925871016672

>  <mmgbsa_dG>  (17) 
-49.6958717125017

$$$$
No_1331
     RDKit          3D

 20 22  0  0  1  0  0  0  0  0999 V2000
  -34.9245   78.8990  -46.6306 C   0  0  0  0  0  0  0  0  0  0  0  0
  -36.0466   77.8708  -46.4111 C   0  0  1  0  0  0  0  0  0  0  0  0
  -35.7134   76.8838  -45.3792 N   0  0  0  0  0  0  0  0  0  0  0  0
  -35.4542   77.0895  -44.0757 C   0  0  0  0  0  0  0  0  0  0  0  0
  -35.4505   78.2027  -43.5525 O   0  0  0  0  0  0  0  0  0  0  0  0
  -35.1179   75.8679  -43.2077 C   0  0  1  0  0  0  0  0  0  0  0  0
  -36.2584   75.4239  -42.2918 C   0  0  0  0  0  0  0  0  0  0  0  0
  -35.9009   73.9658  -42.0077 C   0  0  0  0  0  0  0  0  0  0  0  0
  -34.6511   73.6850  -42.8514 C   0  0  0  0  0  0  0  0  0  0  0  0
  -34.7222   74.6562  -43.9349 N   0  0  0  0  0  0  0  0  0  0  0  0
  -37.3950   78.4920  -46.1997 C   0  0  0  0  0  0  0  0  0  0  0  0
  -37.7885   79.3524  -45.2077 C   0  0  0  0  0  0  0  0  0  0  0  0
  -39.1855   79.6101  -45.2077 C   0  0  0  0  0  0  0  0  0  0  0  0
  -39.8401   79.0027  -46.2412 C   0  0  0  0  0  0  0  0  0  0  0  0
  -41.2670   79.0026  -46.5199 C   0  0  0  0  0  0  0  0  0  0  0  0
  -42.2934   79.3573  -45.6733 C   0  0  0  0  0  0  0  0  0  0  0  0
  -43.8611   79.2014  -46.4174 S   0  0  0  0  0  0  0  0  0  0  0  0
  -43.0498   78.6743  -47.8784 C   0  0  0  0  0  0  0  0  0  0  0  0
  -41.7265   78.6025  -47.7778 N   0  0  0  0  0  0  0  0  0  0  0  0
  -38.7221   78.1567  -47.2808 S   0  0  0  0  0  0  0  0  0  0  0  0
  2  1  1  1
  2  3  1  0
  2 11  1  0
  3  4  1  0
  4  5  2  0
  6  4  1  6
  6  7  1  0
  6 10  1  0
  7  8  1  0
  8  9  1  0
  9 10  1  0
 11 12  2  0
 11 20  1  0
 12 13  1  0
 13 14  2  0
 14 15  1  0
 14 20  1  0
 15 16  2  0
 15 19  1  0
 16 17  1  0
 17 18  1  0
 18 19  2  0
M  END
>  <cluster>  (18) 
cluster_6607

>  <glide_score>  (18) 
-6.59090535567283

>  <mmgbsa_dG>  (18) 
-49.6810921633514

$$$$
No_2121
     RDKit          3D

 24 26  0  0  1  0  0  0  0  0999 V2000
  -36.6205   75.1638  -41.9930 C   0  0  0  0  0  0  0  0  0  0  0  0
  -35.4983   74.1594  -42.2816 C   0  0  0  0  0  0  0  0  0  0  0  0
  -34.7221   74.6119  -43.4294 N   0  0  0  0  0  0  0  0  0  0  0  0
  -34.3222   73.8272  -44.4425 C   0  0  0  0  0  0  0  0  0  0  0  0
  -34.3968   72.6024  -44.4061 O   0  0  0  0  0  0  0  0  0  0  0  0
  -33.8279   74.5033  -45.7306 C   0  0  0  0  0  0  0  0  0  0  0  0
  -34.8552   75.4155  -46.2954 N   0  0  1  0  0  0  0  0  0  0  0  0
  -34.6770   76.8265  -45.8580 C   0  0  0  0  0  0  0  0  0  0  0  0
  -35.9132   77.6189  -46.0955 C   0  0  0  0  0  0  0  0  0  0  0  0
  -37.1226   77.6474  -45.4651 C   0  0  0  0  0  0  0  0  0  0  0  0
  -37.9122   78.4495  -46.3325 C   0  0  0  0  0  0  0  0  0  0  0  0
  -39.3078   78.6031  -46.1351 N   0  0  0  0  0  0  0  0  0  0  0  0
  -40.2094   78.9994  -47.0537 C   0  0  0  0  0  0  0  0  0  0  0  0
  -39.9221   79.2952  -48.2136 O   0  0  0  0  0  0  0  0  0  0  0  0
  -41.6266   78.9853  -46.5970 C   0  0  0  0  0  0  0  0  0  0  0  0
  -42.0720   79.0028  -45.2414 C   0  0  0  0  0  0  0  0  0  0  0  0
  -43.4376   79.0030  -45.1292 C   0  0  0  0  0  0  0  0  0  0  0  0
  -44.2158   79.0024  -46.6841 S   0  0  0  0  0  0  0  0  0  0  0  0
  -42.6716   78.9989  -47.4879 C   0  0  0  0  0  0  0  0  0  0  0  0
  -37.2071   78.9605  -47.3289 N   0  0  0  0  0  0  0  0  0  0  0  0
  -35.9216   78.4299  -47.1833 O   0  0  0  0  0  0  0  0  0  0  0  0
  -34.9671   75.2943  -47.7719 C   0  0  0  0  0  0  0  0  0  0  0  0
  -35.6435   74.0248  -48.2402 C   0  0  0  0  0  0  0  0  0  0  0  0
  -36.3874   75.3380  -48.2975 C   0  0  0  0  0  0  0  0  0  0  0  0
  1  2  1  0
  2  3  1  0
  3  4  1  0
  4  5  2  0
  4  6  1  0
  7  6  1  6
  7  8  1  0
  7 22  1  0
  8  9  1  0
  9 10  2  0
  9 21  1  0
 10 11  1  0
 11 12  1  0
 11 20  2  0
 12 13  1  0
 13 14  2  0
 13 15  1  0
 15 16  1  0
 15 19  2  0
 16 17  2  0
 17 18  1  0
 18 19  1  0
 20 21  1  0
 22 23  1  0
 22 24  1  0
 23 24  1  0
M  CHG  1   7   1
M  END
>  <cluster>  (19) 
cluster_102365

>  <glide_score>  (19) 
-7.09560051507204

>  <mmgbsa_dG>  (19) 
-49.5399295853567

$$$$
No_4395
     RDKit          3D

 24 26  0  0  1  0  0  0  0  0999 V2000
  -35.6361   77.3061  -43.3476 O   0  0  0  0  0  0  0  0  0  0  0  0
  -35.1223   76.3067  -43.8539 C   0  0  0  0  0  0  0  0  0  0  0  0
  -34.8346   76.2192  -45.3596 C   0  0  0  0  0  0  0  0  0  0  0  0
  -35.0769   77.5243  -46.1438 C   0  0  0  0  0  0  0  0  0  0  0  0
  -36.4850   77.9086  -46.1321 N   0  0  0  0  0  0  0  0  0  0  0  0
  -37.1396   78.4946  -47.1437 C   0  0  0  0  0  0  0  0  0  0  0  0
  -36.6210   78.7953  -48.2178 O   0  0  0  0  0  0  0  0  0  0  0  0
  -38.6042   78.7077  -46.9117 C   0  0  0  0  0  0  0  0  0  0  0  0
  -39.0645   79.2055  -45.6360 C   0  0  0  0  0  0  0  0  0  0  0  0
  -40.4427   79.4023  -45.3240 C   0  0  0  0  0  0  0  0  0  0  0  0
  -41.2974   79.0177  -46.3552 C   0  0  0  0  0  0  0  0  0  0  0  0
  -40.8395   78.6029  -47.6238 C   0  0  0  0  0  0  0  0  0  0  0  0
  -39.5070   78.4389  -47.9860 C   0  0  0  0  0  0  0  0  0  0  0  0
  -42.2234   78.5470  -48.1118 C   0  0  0  0  0  0  0  0  0  0  0  0
  -42.6471   78.2386  -49.2040 O   0  0  0  0  0  0  0  0  0  0  0  0
  -42.6478   78.9653  -46.8221 N   0  0  0  0  0  0  0  0  0  0  0  0
  -43.9507   79.2437  -46.2414 C   0  0  0  0  0  0  0  0  0  0  0  0
  -43.9236   79.1204  -44.7118 C   0  0  0  0  0  0  0  0  0  0  0  0
  -45.2054   79.4027  -44.1834 O   0  0  0  0  0  0  0  0  0  0  0  0
  -34.7370   75.1095  -42.9807 C   0  0  1  0  0  0  0  0  0  0  0  0
  -35.8836   74.5717  -42.1274 C   0  0  0  0  0  0  0  0  0  0  0  0
  -35.4767   73.1292  -41.8723 C   0  0  0  0  0  0  0  0  0  0  0  0
  -34.3634   72.8613  -42.8927 C   0  0  0  0  0  0  0  0  0  0  0  0
  -34.3501   73.9864  -43.7608 O   0  0  0  0  0  0  0  0  0  0  0  0
  1  2  2  0
  2  3  1  0
 20  2  1  6
  3  4  1  0
  4  5  1  0
  5  6  1  0
  6  7  2  0
  6  8  1  0
  8  9  2  0
  8 13  1  0
  9 10  1  0
 10 11  2  0
 11 12  1  0
 11 16  1  0
 12 13  2  0
 12 14  1  0
 14 15  2  0
 14 16  1  0
 16 17  1  0
 17 18  1  0
 18 19  1  0
 20 21  1  0
 20 24  1  0
 21 22  1  0
 22 23  1  0
 23 24  1  0
M  END
>  <cluster>  (20) 
cluster_9671

>  <glide_score>  (20) 
-6.5124292133075

>  <mmgbsa_dG>  (20) 
-49.3879953698051

$$$$
No_5048
     RDKit          3D

 27 29  0  0  1  0  0  0  0  0999 V2000
  -42.7223   79.1106  -49.9212 C   0  0  0  0  0  0  0  0  0  0  0  0
  -42.4476   79.0026  -48.4563 C   0  0  0  0  0  0  0  0  0  0  0  0
  -43.3425   79.1250  -47.4204 C   0  0  0  0  0  0  0  0  0  0  0  0
  -42.5658   79.0027  -45.8651 S   0  0  0  0  0  0  0  0  0  0  0  0
  -41.0340   78.7920  -46.7000 C   0  0  0  0  0  0  0  0  0  0  0  0
  -39.8171   78.6026  -46.0077 N   0  0  0  0  0  0  0  0  0  0  0  0
  -38.5712   78.6026  -46.5020 C   0  0  0  0  0  0  0  0  0  0  0  0
  -38.2568   79.0026  -47.6218 O   0  0  0  0  0  0  0  0  0  0  0  0
  -37.6886   78.1100  -45.6202 N   0  0  0  0  0  0  0  0  0  0  0  0
  -36.2795   77.8349  -45.9109 C   0  0  2  0  0  0  0  0  0  0  0  0
  -36.1737   76.6144  -46.8595 C   0  0  0  0  0  0  0  0  0  0  0  0
  -34.7414   76.2409  -47.2844 C   0  0  0  0  0  0  0  0  0  0  0  0
  -33.9054   77.1419  -47.3402 O   0  0  0  0  0  0  0  0  0  0  0  0
  -34.4223   74.9480  -47.5469 N   0  0  0  0  0  0  0  0  0  0  0  0
  -33.0307   74.5280  -47.7748 C   0  0  0  0  0  0  0  0  0  0  0  0
  -32.9478   73.6347  -49.0217 C   0  0  0  0  0  0  0  0  0  0  0  0
  -33.7715   72.4963  -48.8083 O   0  0  0  0  0  0  0  0  0  0  0  0
  -35.1395   72.8700  -48.7101 C   0  0  0  0  0  0  0  0  0  0  0  0
  -35.3546   73.8091  -47.5078 C   0  0  0  0  0  0  0  0  0  0  0  0
  -35.4799   77.7061  -44.5866 C   0  0  0  0  0  0  0  0  0  0  0  0
  -35.6464   76.4185  -43.7795 C   0  0  0  0  0  0  0  0  0  0  0  0
  -34.7221   75.3597  -43.8995 C   0  0  0  0  0  0  0  0  0  0  0  0
  -34.7758   74.2619  -43.0122 C   0  0  0  0  0  0  0  0  0  0  0  0
  -35.7632   74.1976  -42.0941 N   0  0  0  0  0  0  0  0  0  0  0  0
  -36.7228   75.1410  -42.0076 C   0  0  0  0  0  0  0  0  0  0  0  0
  -36.6864   76.2721  -42.8418 C   0  0  0  0  0  0  0  0  0  0  0  0
  -41.1386   78.7801  -48.0306 N   0  0  0  0  0  0  0  0  0  0  0  0
  1  2  1  0
  2  3  2  0
  2 27  1  0
  3  4  1  0
  4  5  1  0
  5  6  1  0
  5 27  2  0
  6  7  1  0
  7  8  2  0
  7  9  1  0
  9 10  1  0
 10 11  1  1
 10 20  1  0
 11 12  1  0
 12 13  2  0
 12 14  1  0
 14 15  1  0
 14 19  1  0
 15 16  1  0
 16 17  1  0
 17 18  1  0
 18 19  1  0
 20 21  1  0
 21 22  2  0
 21 26  1  0
 22 23  1  0
 23 24  2  0
 24 25  1  0
 25 26  2  0
M  CHG  1  24   1
M  END
>  <cluster>  (21) 
cluster_73636

>  <glide_score>  (21) 
-6.8792076565844

>  <mmgbsa_dG>  (21) 
-49.3314747401892

$$$$
No_4242
     RDKit          3D

 23 24  0  0  1  0  0  0  0  0999 V2000
  -40.7717   79.0003  -50.2841 C   0  0  0  0  0  0  0  0  0  0  0  0
  -40.8755   77.8854  -49.2337 C   0  0  0  0  0  0  0  0  0  0  0  0
  -41.4045   78.3787  -47.9711 N   0  0  0  0  0  0  0  0  0  0  0  0
  -42.7289   78.6373  -47.9164 N   0  0  0  0  0  0  0  0  0  0  0  0
  -42.9762   79.0155  -46.6713 C   0  0  0  0  0  0  0  0  0  0  0  0
  -44.3713   79.4003  -46.2946 C   0  0  0  0  0  0  0  0  0  0  0  0
  -41.8114   79.0026  -45.8558 C   0  0  0  0  0  0  0  0  0  0  0  0
  -40.8358   78.6027  -46.7212 C   0  0  0  0  0  0  0  0  0  0  0  0
  -39.5558   78.4109  -46.3062 N   0  0  0  0  0  0  0  0  0  0  0  0
  -38.4024   78.6231  -46.9613 C   0  0  0  0  0  0  0  0  0  0  0  0
  -38.3487   79.0026  -48.1277 O   0  0  0  0  0  0  0  0  0  0  0  0
  -37.1533   78.4990  -46.1675 C   0  0  0  0  0  0  0  0  0  0  0  0
  -37.1219   77.7962  -44.9828 N   0  0  0  0  0  0  0  0  0  0  0  0
  -35.8785   77.8593  -44.4056 C   0  0  0  0  0  0  0  0  0  0  0  0
  -35.6064   77.1618  -43.1126 C   0  0  0  0  0  0  0  0  0  0  0  0
  -35.0971   78.6378  -45.2229 C   0  0  0  0  0  0  0  0  0  0  0  0
  -33.6590   79.0466  -44.9744 C   0  0  0  0  0  0  0  0  0  0  0  0
  -33.3955   79.4793  -43.6076 N   0  0  0  0  0  0  0  0  0  0  0  0
  -33.8573   80.6035  -43.0451 C   0  0  0  0  0  0  0  0  0  0  0  0
  -33.4110   80.8709  -41.6126 C   0  0  0  0  0  0  0  0  0  0  0  0
  -34.6176   81.3940  -43.6073 O   0  0  0  0  0  0  0  0  0  0  0  0
  -35.8906   79.0031  -46.3638 C   0  0  0  0  0  0  0  0  0  0  0  0
  -35.4271   79.8293  -47.5422 C   0  0  0  0  0  0  0  0  0  0  0  0
  1  2  1  0
  2  3  1  0
  3  4  1  0
  3  8  1  0
  4  5  2  0
  5  6  1  0
  5  7  1  0
  7  8  2  0
  8  9  1  0
  9 10  1  0
 10 11  2  0
 10 12  1  0
 12 13  1  0
 12 22  2  0
 13 14  1  0
 14 15  1  0
 14 16  2  0
 16 17  1  0
 16 22  1  0
 17 18  1  0
 18 19  1  0
 19 20  1  0
 19 21  2  0
 22 23  1  0
M  END
>  <cluster>  (22) 
cluster_30622

>  <glide_score>  (22) 
-7.34319409703342

>  <mmgbsa_dG>  (22) 
-49.1453516657202

$$$$
No_2923
     RDKit          3D

 22 24  0  0  1  0  0  0  0  0999 V2000
  -43.6212   79.3092  -47.8846 C   0  0  0  0  0  0  0  0  0  0  0  0
  -42.1584   79.0023  -47.8698 C   0  0  0  0  0  0  0  0  0  0  0  0
  -41.4290   78.8326  -49.0163 C   0  0  0  0  0  0  0  0  0  0  0  0
  -39.7436   78.6028  -48.6800 S   0  0  0  0  0  0  0  0  0  0  0  0
  -40.0213   78.7231  -46.9520 C   0  0  0  0  0  0  0  0  0  0  0  0
  -39.0578   78.6023  -46.0080 N   0  0  0  0  0  0  0  0  0  0  0  0
  -37.7232   78.6809  -46.1450 C   0  0  0  0  0  0  0  0  0  0  0  0
  -37.1466   79.1479  -47.1273 O   0  0  0  0  0  0  0  0  0  0  0  0
  -36.9363   78.1602  -44.9330 C   0  0  2  0  0  0  0  0  0  0  0  0
  -35.6520   78.9433  -44.5968 C   0  0  0  0  0  0  0  0  0  0  0  0
  -34.5137   77.9152  -44.6449 C   0  0  0  0  0  0  0  0  0  0  0  0
  -35.0355   76.9109  -45.5547 N   0  0  0  0  0  0  0  0  0  0  0  0
  -34.2724   75.6637  -45.6660 C   0  0  0  0  0  0  0  0  0  0  0  0
  -34.3222   74.6773  -44.5271 C   0  0  0  0  0  0  0  0  0  0  0  0
  -34.7205   74.8494  -43.2636 N   0  0  0  0  0  0  0  0  0  0  0  0
  -34.6331   73.5812  -42.7804 C   0  0  0  0  0  0  0  0  0  0  0  0
  -34.9968   73.2226  -41.3836 C   0  0  0  0  0  0  0  0  0  0  0  0
  -34.2114   72.6620  -43.6395 N   0  0  0  0  0  0  0  0  0  0  0  0
  -33.9763   73.4010  -44.8078 O   0  0  0  0  0  0  0  0  0  0  0  0
  -36.4332   76.7428  -45.1876 C   0  0  0  0  0  0  0  0  0  0  0  0
  -41.3602   78.9002  -46.6874 C   0  0  0  0  0  0  0  0  0  0  0  0
  -41.9109   79.0012  -45.2936 C   0  0  0  0  0  0  0  0  0  0  0  0
  1  2  1  0
  2  3  2  0
  2 21  1  0
  3  4  1  0
  4  5  1  0
  5  6  1  0
  5 21  2  0
  6  7  1  0
  7  8  2  0
  9  7  1  6
  9 10  1  0
  9 20  1  0
 10 11  1  0
 11 12  1  0
 12 13  1  0
 12 20  1  0
 13 14  1  0
 14 15  2  0
 14 19  1  0
 15 16  1  0
 16 17  1  0
 16 18  2  0
 18 19  1  0
 21 22  1  0
M  END
>  <cluster>  (23) 
cluster_24027

>  <glide_score>  (23) 
-6.57460237162631

>  <mmgbsa_dG>  (23) 
-48.8100755664564

$$$$
No_4123
     RDKit          3D

 26 30  0  0  1  0  0  0  0  0999 V2000
  -44.4131   79.1226  -46.3634 C   0  0  0  0  0  0  0  0  0  0  0  0
  -43.0567   78.5753  -46.8104 C   0  0  1  0  0  0  0  0  0  0  0  0
  -42.7392   79.0031  -48.2564 C   0  0  0  0  0  0  0  0  0  0  0  0
  -41.3824   78.4682  -48.7312 C   0  0  0  0  0  0  0  0  0  0  0  0
  -40.3184   78.6573  -47.7026 C   0  0  0  0  0  0  0  0  0  0  0  0
  -39.0139   78.6024  -47.9412 N   0  0  0  0  0  0  0  0  0  0  0  0
  -38.4240   78.7659  -46.6887 C   0  0  0  0  0  0  0  0  0  0  0  0
  -36.9621   78.7377  -46.4546 C   0  0  0  0  0  0  0  0  0  0  0  0
  -36.1722   79.2744  -47.2305 O   0  0  0  0  0  0  0  0  0  0  0  0
  -36.5888   78.0458  -45.3658 N   0  0  0  0  0  0  0  0  0  0  0  0
  -35.1999   77.8233  -44.9736 C   0  0  2  0  0  0  0  0  0  0  0  0
  -34.9987   76.3927  -44.4774 C   0  0  0  0  0  0  0  0  0  0  0  0
  -34.3241   75.4573  -45.3022 C   0  0  0  0  0  0  0  0  0  0  0  0
  -34.1074   74.1301  -44.8708 C   0  0  0  0  0  0  0  0  0  0  0  0
  -34.5551   73.7096  -43.5976 C   0  0  0  0  0  0  0  0  0  0  0  0
  -34.4654   72.4694  -42.9820 N   0  0  0  0  0  0  0  0  0  0  0  0
  -35.0580   72.7095  -41.8118 C   0  0  0  0  0  0  0  0  0  0  0  0
  -35.5221   73.9533  -41.6140 N   0  0  0  0  0  0  0  0  0  0  0  0
  -35.2267   74.6642  -42.7717 C   0  0  0  0  0  0  0  0  0  0  0  0
  -35.4598   75.9856  -43.2034 C   0  0  0  0  0  0  0  0  0  0  0  0
  -34.6761   78.8612  -43.9891 C   0  0  0  0  0  0  0  0  0  0  0  0
  -33.2692   79.4031  -44.1173 C   0  0  0  0  0  0  0  0  0  0  0  0
  -34.4392   80.2903  -44.4344 C   0  0  0  0  0  0  0  0  0  0  0  0
  -39.4015   79.0030  -45.7512 C   0  0  0  0  0  0  0  0  0  0  0  0
  -40.6138   78.8769  -46.4105 N   0  0  0  0  0  0  0  0  0  0  0  0
  -41.9400   79.0028  -45.8320 C   0  0  0  0  0  0  0  0  0  0  0  0
  2  1  1  1
  2  3  1  0
  2 26  1  0
  3  4  1  0
  4  5  1  0
  5  6  2  0
  5 25  1  0
  6  7  1  0
  7  8  1  0
  7 24  2  0
  8  9  2  0
  8 10  1  0
 11 10  1  1
 11 12  1  0
 11 21  1  0
 12 13  2  0
 12 20  1  0
 13 14  1  0
 14 15  2  0
 15 16  1  0
 15 19  1  0
 16 17  2  0
 17 18  1  0
 18 19  1  0
 19 20  2  0
 21 22  1  0
 21 23  1  0
 22 23  1  0
 24 25  1  0
 25 26  1  0
M  END
>  <cluster>  (24) 
cluster_125471

>  <glide_score>  (24) 
-6.80573898902014

>  <mmgbsa_dG>  (24) 
-48.7824714205053

$$$$
No_4995
     RDKit          3D

 23 25  0  0  1  0  0  0  0  0999 V2000
  -44.8871   79.1560  -46.3952 C   0  0  0  0  0  0  0  0  0  0  0  0
  -43.4729   79.0027  -46.8349 C   0  0  0  0  0  0  0  0  0  0  0  0
  -43.1221   78.9186  -48.1525 C   0  0  0  0  0  0  0  0  0  0  0  0
  -41.4352   78.6029  -48.3532 S   0  0  0  0  0  0  0  0  0  0  0  0
  -41.1512   78.7471  -46.6257 C   0  0  0  0  0  0  0  0  0  0  0  0
  -39.9388   78.6027  -46.0344 N   0  0  0  0  0  0  0  0  0  0  0  0
  -38.7429   78.5801  -46.6463 C   0  0  0  0  0  0  0  0  0  0  0  0
  -38.5330   79.0026  -47.7834 O   0  0  0  0  0  0  0  0  0  0  0  0
  -37.6651   77.9683  -45.8326 C   0  0  1  0  0  0  0  0  0  0  0  0
  -36.7321   77.0773  -46.6063 C   0  0  0  0  0  0  0  0  0  0  0  0
  -36.2291   78.3974  -46.0452 C   0  0  2  0  0  0  0  0  0  0  0  0
  -35.4219   78.4851  -44.7754 C   0  0  0  0  0  0  0  0  0  0  0  0
  -35.5222   79.4703  -44.0419 O   0  0  0  0  0  0  0  0  0  0  0  0
  -34.4020   77.4027  -44.4275 C   0  0  0  0  0  0  0  0  0  0  0  0
  -34.9791   76.0537  -44.2256 N   0  0  0  0  0  0  0  0  0  0  0  0
  -35.2401   75.6919  -42.9445 N   0  0  0  0  0  0  0  0  0  0  0  0
  -34.9022   74.4539  -42.8241 C   0  0  0  0  0  0  0  0  0  0  0  0
  -35.0706   73.6151  -41.5997 C   0  0  0  0  0  0  0  0  0  0  0  0
  -34.3222   73.9508  -44.0694 C   0  0  0  0  0  0  0  0  0  0  0  0
  -33.9767   72.7930  -44.3123 O   0  0  0  0  0  0  0  0  0  0  0  0
  -34.3222   75.0064  -44.8813 N   0  0  0  0  0  0  0  0  0  0  0  0
  -34.0132   75.0215  -46.3084 C   0  0  0  0  0  0  0  0  0  0  0  0
  -42.3415   78.9364  -45.9679 C   0  0  0  0  0  0  0  0  0  0  0  0
  1  2  1  0
  2  3  2  0
  2 23  1  0
  3  4  1  0
  4  5  1  0
  5  6  1  0
  5 23  2  0
  6  7  1  0
  7  8  2  0
  9  7  1  6
  9 10  1  0
  9 11  1  0
 10 11  1  0
 11 12  1  1
 12 13  2  0
 12 14  1  0
 14 15  1  0
 15 16  1  0
 15 21  1  0
 16 17  2  0
 17 18  1  0
 17 19  1  0
 19 20  2  0
 19 21  1  0
 21 22  1  0
M  END
>  <cluster>  (25) 
cluster_89411

>  <glide_score>  (25) 
-6.68944183683521

>  <mmgbsa_dG>  (25) 
-48.7347503785641

$$$$
No_2307
     RDKit          3D

 25 27  0  0  1  0  0  0  0  0999 V2000
  -32.0826   81.0664  -40.2277 C   0  0  0  0  0  0  0  0  0  0  0  0
  -32.6789   81.5840  -41.5319 C   0  0  0  0  0  0  0  0  0  0  0  0
  -32.7574   82.7862  -41.7801 O   0  0  0  0  0  0  0  0  0  0  0  0
  -33.0979   80.6025  -42.4264 N   0  0  0  0  0  0  0  0  0  0  0  0
  -33.6038   80.8812  -44.0467 S   0  0  0  0  0  0  0  0  0  0  0  0
  -34.8436   81.6738  -44.0075 O   0  0  0  0  0  0  0  0  0  0  0  0
  -32.4255   81.3286  -44.8056 O   0  0  0  0  0  0  0  0  0  0  0  0
  -34.0077   79.2485  -44.5034 N   0  0  0  0  0  0  0  0  0  0  0  0
  -35.2623   78.6386  -44.0089 C   0  0  0  0  0  0  0  0  0  0  0  0
  -36.0770   77.8399  -45.0523 C   0  0  0  0  0  0  0  0  0  0  0  0
  -36.4383   78.6205  -46.3439 C   0  0  2  0  0  0  0  0  0  0  0  0
  -37.8441   78.1941  -46.8791 C   0  0  2  0  0  0  0  0  0  0  0  0
  -38.1219   78.6080  -48.3449 C   0  0  0  0  0  0  0  0  0  0  0  0
  -39.4499   78.3292  -48.7770 O   0  0  0  0  0  0  0  0  0  0  0  0
  -40.4510   78.5974  -47.8764 C   0  0  0  0  0  0  0  0  0  0  0  0
  -41.7842   78.6033  -48.3363 C   0  0  0  0  0  0  0  0  0  0  0  0
  -42.8492   78.8111  -47.4382 C   0  0  0  0  0  0  0  0  0  0  0  0
  -42.5838   79.0075  -46.0709 C   0  0  0  0  0  0  0  0  0  0  0  0
  -43.6052   79.1927  -45.2020 F   0  0  0  0  0  0  0  0  0  0  0  0
  -41.2558   79.0050  -45.6064 C   0  0  0  0  0  0  0  0  0  0  0  0
  -40.1860   78.7919  -46.4997 C   0  0  0  0  0  0  0  0  0  0  0  0
  -38.8765   78.7484  -46.0067 N   0  0  0  0  0  0  0  0  0  0  0  0
  -35.2912   78.4590  -47.3740 C   0  0  0  0  0  0  0  0  0  0  0  0
  -33.9715   79.1427  -46.9813 C   0  0  0  0  0  0  0  0  0  0  0  0
  -33.3499   78.6396  -45.6717 C   0  0  0  0  0  0  0  0  0  0  0  0
  1  2  1  0
  2  3  2  0
  2  4  1  0
  4  5  1  0
  5  6  2  0
  5  7  2  0
  5  8  1  0
  8  9  1  0
  8 25  1  0
  9 10  1  0
 11 10  1  1
 11 12  1  0
 11 23  1  0
 12 13  1  6
 12 22  1  0
 13 14  1  0
 14 15  1  0
 15 16  2  0
 15 21  1  0
 16 17  1  0
 17 18  2  0
 18 19  1  0
 18 20  1  0
 20 21  2  0
 21 22  1  0
 23 24  1  0
 24 25  1  0
M  END
>  <cluster>  (26) 
cluster_123655

>  <glide_score>  (26) 
-6.59907181489916

>  <mmgbsa_dG>  (26) 
-48.7214765204772

$$$$
No_2147
     RDKit          3D

 24 26  0  0  1  0  0  0  0  0999 V2000
  -36.7281   75.3618  -49.4430 C   0  0  0  0  0  0  0  0  0  0  0  0
  -35.6754   75.4103  -48.3907 C   0  0  0  0  0  0  0  0  0  0  0  0
  -35.0725   74.4633  -47.6112 C   0  0  0  0  0  0  0  0  0  0  0  0
  -34.1643   75.1609  -46.7665 C   0  0  0  0  0  0  0  0  0  0  0  0
  -34.2821   76.4840  -47.0890 C   0  0  0  0  0  0  0  0  0  0  0  0
  -33.6834   77.7358  -46.5385 C   0  0  0  0  0  0  0  0  0  0  0  0
  -34.3448   78.1990  -45.3189 N   0  0  0  0  0  0  0  0  0  0  0  0
  -33.5949   79.2862  -44.7352 C   0  0  0  0  0  0  0  0  0  0  0  0
  -34.6569   79.8473  -43.7988 C   0  0  0  0  0  0  0  0  0  0  0  0
  -35.8785   79.6897  -44.5083 O   0  0  0  0  0  0  0  0  0  0  0  0
  -35.6847   78.7057  -45.4806 C   0  0  2  0  0  0  0  0  0  0  0  0
  -36.8263   77.6759  -45.3478 C   0  0  0  0  0  0  0  0  0  0  0  0
  -38.1615   78.2028  -45.6071 N   0  0  0  0  0  0  0  0  0  0  0  0
  -38.6588   78.6187  -46.7776 C   0  0  0  0  0  0  0  0  0  0  0  0
  -37.9550   78.8245  -47.7652 O   0  0  0  0  0  0  0  0  0  0  0  0
  -40.1651   78.7726  -46.8138 C   0  0  0  0  0  0  0  0  0  0  0  0
  -40.8563   79.1096  -45.6219 C   0  0  0  0  0  0  0  0  0  0  0  0
  -42.2568   79.2329  -45.5970 C   0  0  0  0  0  0  0  0  0  0  0  0
  -43.0007   79.0401  -46.7725 C   0  0  0  0  0  0  0  0  0  0  0  0
  -44.5069   79.1834  -46.7549 C   0  0  0  0  0  0  0  0  0  0  0  0
  -42.3331   78.7331  -47.9717 C   0  0  0  0  0  0  0  0  0  0  0  0
  -40.9267   78.6022  -48.0087 C   0  0  0  0  0  0  0  0  0  0  0  0
  -40.2950   78.2469  -49.3471 C   0  0  0  0  0  0  0  0  0  0  0  0
  -35.1884   76.6461  -48.0930 O   0  0  0  0  0  0  0  0  0  0  0  0
  1  2  1  0
  2  3  2  0
  2 24  1  0
  3  4  1  0
  4  5  2  0
  5  6  1  0
  5 24  1  0
  6  7  1  0
  7  8  1  0
  7 11  1  0
  8  9  1  0
  9 10  1  0
 10 11  1  0
 11 12  1  1
 12 13  1  0
 13 14  1  0
 14 15  2  0
 14 16  1  0
 16 17  2  0
 16 22  1  0
 17 18  1  0
 18 19  2  0
 19 20  1  0
 19 21  1  0
 21 22  2  0
 22 23  1  0
M  END
>  <cluster>  (27) 
cluster_60183

>  <glide_score>  (27) 
-6.84237273156472

>  <mmgbsa_dG>  (27) 
-48.718842059563

$$$$
No_1745
     RDKit          3D

 23 25  0  0  1  0  0  0  0  0999 V2000
  -33.0590   82.3816  -46.8380 C   0  0  0  0  0  0  0  0  0  0  0  0
  -32.4084   81.4944  -45.7787 C   0  0  0  0  0  0  0  0  0  0  0  0
  -31.1878   81.5493  -45.6080 O   0  0  0  0  0  0  0  0  0  0  0  0
  -33.2003   80.6795  -45.0570 N   0  0  0  0  0  0  0  0  0  0  0  0
  -32.7371   79.8029  -44.0076 C   0  0  0  0  0  0  0  0  0  0  0  0
  -33.9858   79.5810  -43.1530 C   0  0  0  0  0  0  0  0  0  0  0  0
  -35.1372   79.6519  -44.0541 N   0  0  0  0  0  0  0  0  0  0  0  0
  -35.4842   78.3764  -44.7225 C   0  0  1  0  0  0  0  0  0  0  0  0
  -35.6731   77.2055  -43.7280 C   0  0  0  0  0  0  0  0  0  0  0  0
  -36.7486   78.4698  -45.5860 C   0  0  0  0  0  0  0  0  0  0  0  0
  -36.9251   77.5959  -46.6766 C   0  0  0  0  0  0  0  0  0  0  0  0
  -38.1582   77.6339  -47.3488 C   0  0  0  0  0  0  0  0  0  0  0  0
  -39.1455   78.5313  -46.8858 C   0  0  0  0  0  0  0  0  0  0  0  0
  -40.4722   78.6054  -47.6096 C   0  0  0  0  0  0  0  0  0  0  0  0
  -40.4909   78.4019  -48.8243 O   0  0  0  0  0  0  0  0  0  0  0  0
  -41.6124   78.8582  -46.9213 N   0  0  0  0  0  0  0  0  0  0  0  0
  -41.7766   79.0020  -45.4745 C   0  0  0  0  0  0  0  0  0  0  0  0
  -43.2729   78.8645  -45.2081 C   0  0  0  0  0  0  0  0  0  0  0  0
  -43.9119   79.3716  -46.4875 C   0  0  0  0  0  0  0  0  0  0  0  0
  -42.9186   78.9617  -47.5767 C   0  0  0  0  0  0  0  0  0  0  0  0
  -38.8826   79.3882  -45.8664 N   0  0  0  0  0  0  0  0  0  0  0  0
  -37.7183   79.3408  -45.2079 N   0  0  0  0  0  0  0  0  0  0  0  0
  -34.6542   80.6407  -45.0238 C   0  0  0  0  0  0  0  0  0  0  0  0
  1  2  1  0
  2  3  2  0
  2  4  1  0
  4  5  1  0
  4 23  1  0
  5  6  1  0
  6  7  1  0
  7  8  1  0
  7 23  1  0
  8  9  1  1
  8 10  1  0
 10 11  2  0
 10 22  1  0
 11 12  1  0
 12 13  2  0
 13 14  1  0
 13 21  1  0
 14 15  2  0
 14 16  1  0
 16 17  1  0
 16 20  1  0
 17 18  1  0
 18 19  1  0
 19 20  1  0
 21 22  2  0
M  END
>  <cluster>  (28) 
cluster_12297

>  <glide_score>  (28) 
-6.74017626957776

>  <mmgbsa_dG>  (28) 
-48.3991793344248

$$$$
No_4401
     RDKit          3D

 25 27  0  0  1  0  0  0  0  0999 V2000
  -44.3189   79.4052  -46.7090 C   0  0  0  0  0  0  0  0  0  0  0  0
  -42.9241   79.1239  -47.2303 C   0  0  0  0  0  0  0  0  0  0  0  0
  -42.7153   78.9997  -48.6148 C   0  0  0  0  0  0  0  0  0  0  0  0
  -41.4179   78.7400  -49.0767 C   0  0  0  0  0  0  0  0  0  0  0  0
  -40.3623   78.6054  -48.2533 N   0  0  0  0  0  0  0  0  0  0  0  0
  -40.5363   78.7344  -46.9176 C   0  0  0  0  0  0  0  0  0  0  0  0
  -39.4621   78.5450  -46.0082 N   0  0  0  0  0  0  0  0  0  0  0  0
  -38.1497   78.5967  -46.2803 C   0  0  0  0  0  0  0  0  0  0  0  0
  -37.6781   79.1294  -47.2849 O   0  0  0  0  0  0  0  0  0  0  0  0
  -37.2173   78.0111  -45.2073 C   0  0  0  0  0  0  0  0  0  0  0  0
  -35.8540   77.6845  -45.6874 N   0  0  0  0  0  0  0  0  0  0  0  0
  -35.8412   76.6731  -46.7517 C   0  0  0  0  0  0  0  0  0  0  0  0
  -34.8632   77.3936  -44.6459 C   0  0  1  0  0  0  0  0  0  0  0  0
  -34.6798   78.5768  -43.6765 C   0  0  0  0  0  0  0  0  0  0  0  0
  -35.0068   76.0766  -43.9207 C   0  0  0  0  0  0  0  0  0  0  0  0
  -35.7183   75.7997  -42.8080 N   0  0  0  0  0  0  0  0  0  0  0  0
  -35.4736   74.4998  -42.4478 C   0  0  0  0  0  0  0  0  0  0  0  0
  -34.6393   73.9781  -43.3505 C   0  0  0  0  0  0  0  0  0  0  0  0
  -34.3633   74.9443  -44.2734 N   0  0  0  0  0  0  0  0  0  0  0  0
  -34.3140   72.5545  -43.1736 C   0  0  0  0  0  0  0  0  0  0  0  0
  -35.2665   72.2663  -41.9920 C   0  0  0  0  0  0  0  0  0  0  0  0
  -35.5218   71.1268  -41.6060 O   0  0  0  0  0  0  0  0  0  0  0  0
  -35.9288   73.5480  -41.4182 C   0  0  0  0  0  0  0  0  0  0  0  0
  -41.8148   79.0026  -46.3588 C   0  0  0  0  0  0  0  0  0  0  0  0
  -41.9890   79.1672  -44.8552 C   0  0  0  0  0  0  0  0  0  0  0  0
  1  2  1  0
  2  3  2  0
  2 24  1  0
  3  4  1  0
  4  5  2  0
  5  6  1  0
  6  7  1  0
  6 24  2  0
  7  8  1  0
  8  9  2  0
  8 10  1  0
 10 11  1  0
 11 12  1  0
 11 13  1  0
 13 14  1  1
 13 15  1  0
 15 16  2  0
 15 19  1  0
 16 17  1  0
 17 18  2  0
 17 23  1  0
 18 19  1  0
 18 20  1  0
 20 21  1  0
 21 22  2  0
 21 23  1  0
 24 25  1  0
M  CHG  1  16   1
M  END
>  <cluster>  (29) 
cluster_125749

>  <glide_score>  (29) 
-6.87328335865462

>  <mmgbsa_dG>  (29) 
-48.3154472712631

$$$$
No_3291
     RDKit          3D

 21 22  0  0  1  0  0  0  0  0999 V2000
  -32.2896   80.9871  -42.2883 C   0  0  0  0  0  0  0  0  0  0  0  0
  -33.6016   80.7090  -43.0135 C   0  0  0  0  0  0  0  0  0  0  0  0
  -34.3219   81.6556  -43.3289 O   0  0  0  0  0  0  0  0  0  0  0  0
  -33.9224   79.4149  -43.2080 N   0  0  0  0  0  0  0  0  0  0  0  0
  -34.9586   78.9213  -43.9352 C   0  0  0  0  0  0  0  0  0  0  0  0
  -35.5817   77.7119  -43.7329 C   0  0  0  0  0  0  0  0  0  0  0  0
  -36.6620   77.4635  -44.6341 C   0  0  0  0  0  0  0  0  0  0  0  0
  -36.8363   78.4628  -45.5558 C   0  0  0  0  0  0  0  0  0  0  0  0
  -37.7689   78.6373  -46.6888 C   0  0  0  0  0  0  0  0  0  0  0  0
  -37.3346   79.0043  -47.7787 O   0  0  0  0  0  0  0  0  0  0  0  0
  -39.0707   78.4343  -46.4060 N   0  0  0  0  0  0  0  0  0  0  0  0
  -40.2021   78.6059  -47.2297 C   0  0  0  0  0  0  0  0  0  0  0  0
  -41.3797   78.9663  -46.6652 C   0  0  0  0  0  0  0  0  0  0  0  0
  -41.4703   79.3495  -45.1910 C   0  0  0  0  0  0  0  0  0  0  0  0
  -42.5619   79.0263  -47.4105 N   0  0  0  0  0  0  0  0  0  0  0  0
  -43.8419   79.5217  -46.9109 C   0  0  0  0  0  0  0  0  0  0  0  0
  -42.6142   78.4703  -48.7585 C   0  0  0  0  0  0  0  0  0  0  0  0
  -41.3151   78.7289  -49.5322 C   0  0  2  0  0  0  0  0  0  0  0  0
  -41.3382   78.0735  -50.9201 C   0  0  0  0  0  0  0  0  0  0  0  0
  -40.0634   78.3216  -48.7292 C   0  0  0  0  0  0  0  0  0  0  0  0
  -35.6596   79.7289  -45.3293 S   0  0  0  0  0  0  0  0  0  0  0  0
  1  2  1  0
  2  3  2  0
  2  4  1  0
  4  5  1  0
  5  6  2  0
  5 21  1  0
  6  7  1  0
  7  8  2  0
  8  9  1  0
  8 21  1  0
  9 10  2  0
  9 11  1  0
 11 12  1  0
 12 13  2  0
 12 20  1  0
 13 14  1  0
 13 15  1  0
 15 16  1  0
 15 17  1  0
 17 18  1  0
 18 19  1  6
 18 20  1  0
M  END
>  <cluster>  (30) 
cluster_98259

>  <glide_score>  (30) 
-6.57450938708016

>  <mmgbsa_dG>  (30) 
-48.3059066677597

$$$$
No_1877
     RDKit          3D

 24 26  0  0  1  0  0  0  0  0999 V2000
  -35.6553   71.1953  -41.4736 C   0  0  0  0  0  0  0  0  0  0  0  0
  -34.9476   72.0007  -42.3951 O   0  0  0  0  0  0  0  0  0  0  0  0
  -35.3035   73.2944  -42.4069 C   0  0  0  0  0  0  0  0  0  0  0  0
  -36.3225   73.8981  -41.8005 N   0  0  0  0  0  0  0  0  0  0  0  0
  -36.3665   75.2620  -42.0924 C   0  0  0  0  0  0  0  0  0  0  0  0
  -35.3627   75.6888  -42.9306 C   0  0  0  0  0  0  0  0  0  0  0  0
  -35.1010   77.1067  -43.3619 C   0  0  0  0  0  0  0  0  0  0  0  0
  -35.2335   77.4150  -44.7891 N   0  0  0  0  0  0  0  0  0  0  0  0
  -34.2327   76.8701  -45.7000 C   0  0  0  0  0  0  0  0  0  0  0  0
  -34.8791   77.0350  -47.0664 C   0  0  0  0  0  0  0  0  0  0  0  0
  -36.3310   76.7032  -46.7719 C   0  0  0  0  0  0  0  0  0  0  0  0
  -36.5730   77.2724  -45.3630 C   0  0  2  0  0  0  0  0  0  0  0  0
  -37.2252   78.6700  -45.3814 C   0  0  0  0  0  0  0  0  0  0  0  0
  -38.6625   78.6027  -45.6080 N   0  0  0  0  0  0  0  0  0  0  0  0
  -39.3026   78.8045  -46.7664 C   0  0  0  0  0  0  0  0  0  0  0  0
  -38.7220   79.0026  -47.8332 O   0  0  0  0  0  0  0  0  0  0  0  0
  -40.8037   78.7768  -46.7069 C   0  0  0  0  0  0  0  0  0  0  0  0
  -41.4959   79.0026  -45.4929 C   0  0  0  0  0  0  0  0  0  0  0  0
  -42.9017   79.0524  -45.4674 C   0  0  0  0  0  0  0  0  0  0  0  0
  -43.6316   78.8955  -46.6602 C   0  0  0  0  0  0  0  0  0  0  0  0
  -45.1381   79.0025  -46.6514 C   0  0  0  0  0  0  0  0  0  0  0  0
  -42.9530   78.6638  -47.8718 C   0  0  0  0  0  0  0  0  0  0  0  0
  -41.5480   78.6031  -47.8950 C   0  0  0  0  0  0  0  0  0  0  0  0
  -34.3222   74.3496  -43.3766 S   0  0  0  0  0  0  0  0  0  0  0  0
  1  2  1  0
  2  3  1  0
  3  4  2  0
  3 24  1  0
  4  5  1  0
  5  6  2  0
  6  7  1  0
  6 24  1  0
  7  8  1  0
  8  9  1  0
  8 12  1  0
  9 10  1  0
 10 11  1  0
 11 12  1  0
 12 13  1  6
 13 14  1  0
 14 15  1  0
 15 16  2  0
 15 17  1  0
 17 18  2  0
 17 23  1  0
 18 19  1  0
 19 20  2  0
 20 21  1  0
 20 22  1  0
 22 23  2  0
M  END
>  <cluster>  (31) 
cluster_33533

>  <glide_score>  (31) 
-7.20093447421469

>  <mmgbsa_dG>  (31) 
-48.2862787484191

$$$$
No_559
     RDKit          3D

 21 23  0  0  1  0  0  0  0  0999 V2000
  -34.9376   77.9307  -42.8075 O   0  0  0  0  0  0  0  0  0  0  0  0
  -35.6494   77.4077  -43.6604 C   0  0  0  0  0  0  0  0  0  0  0  0
  -36.2165   76.2032  -43.4951 N   0  0  0  0  0  0  0  0  0  0  0  0
  -36.0922   75.3330  -42.3340 C   0  0  0  0  0  0  0  0  0  0  0  0
  -34.7846   74.5685  -42.2733 C   0  0  0  0  0  0  0  0  0  0  0  0
  -34.6122   73.4025  -41.3244 C   0  0  0  0  0  0  0  0  0  0  0  0
  -34.6409   73.1651  -42.8123 C   0  0  0  0  0  0  0  0  0  0  0  0
  -35.8593   77.9628  -44.8755 N   0  0  0  0  0  0  0  0  0  0  0  0
  -35.0781   79.0982  -45.3687 C   0  0  0  0  0  0  0  0  0  0  0  0
  -35.9307   80.3742  -45.2597 C   0  0  0  0  0  0  0  0  0  0  0  0
  -37.1454   80.2037  -45.9851 O   0  0  0  0  0  0  0  0  0  0  0  0
  -37.9319   79.0978  -45.5319 C   0  0  1  0  0  0  0  0  0  0  0  0
  -39.2064   79.0029  -46.3832 C   0  0  0  0  0  0  0  0  0  0  0  0
  -39.1068   78.9634  -47.6102 O   0  0  0  0  0  0  0  0  0  0  0  0
  -40.3734   79.0027  -45.7113 N   0  0  0  0  0  0  0  0  0  0  0  0
  -41.6921   79.0018  -46.2368 C   0  0  0  0  0  0  0  0  0  0  0  0
  -41.9753   78.9850  -47.5437 N   0  0  0  0  0  0  0  0  0  0  0  0
  -43.3486   79.0026  -47.7838 C   0  0  0  0  0  0  0  0  0  0  0  0
  -44.1083   79.0026  -46.6409 C   0  0  0  0  0  0  0  0  0  0  0  0
  -43.1172   79.0038  -45.2077 S   0  0  0  0  0  0  0  0  0  0  0  0
  -37.0875   77.8176  -45.6612 C   0  0  0  0  0  0  0  0  0  0  0  0
  1  2  2  0
  2  3  1  0
  2  8  1  0
  3  4  1  0
  4  5  1  0
  5  6  1  0
  5  7  1  0
  6  7  1  0
  8  9  1  0
  8 21  1  0
  9 10  1  0
 10 11  1  0
 11 12  1  0
 12 13  1  6
 12 21  1  0
 13 14  2  0
 13 15  1  0
 15 16  1  0
 16 17  2  0
 16 20  1  0
 17 18  1  0
 18 19  2  0
 19 20  1  0
M  END
>  <cluster>  (32) 
cluster_16387

>  <glide_score>  (32) 
-6.58474890461534

>  <mmgbsa_dG>  (32) 
-48.033221510741

$$$$
No_314
     RDKit          3D

 25 28  0  0  1  0  0  0  0  0999 V2000
  -39.4304   69.9207  -52.6118 C   0  0  0  0  0  0  0  0  0  0  0  0
  -39.1212   71.0026  -51.7467 O   0  0  0  0  0  0  0  0  0  0  0  0
  -37.8494   71.0172  -51.2796 C   0  0  0  0  0  0  0  0  0  0  0  0
  -36.7675   70.2047  -51.4699 C   0  0  0  0  0  0  0  0  0  0  0  0
  -35.7475   70.7586  -50.6460 C   0  0  0  0  0  0  0  0  0  0  0  0
  -36.2787   71.8572  -50.0135 C   0  0  0  0  0  0  0  0  0  0  0  0
  -35.6210   72.7871  -49.0496 C   0  0  0  0  0  0  0  0  0  0  0  0
  -34.4239   72.6043  -48.8088 O   0  0  0  0  0  0  0  0  0  0  0  0
  -36.3031   73.8189  -48.4866 N   0  0  0  0  0  0  0  0  0  0  0  0
  -35.6416   74.9771  -47.8710 C   0  0  0  0  0  0  0  0  0  0  0  0
  -36.1126   76.2767  -48.5727 C   0  0  0  0  0  0  0  0  0  0  0  0
  -37.5781   76.3820  -48.5944 N   0  0  0  0  0  0  0  0  0  0  0  0
  -38.0744   77.6336  -49.1176 C   0  0  0  0  0  0  0  0  0  0  0  0
  -38.5385   78.4657  -48.0920 O   0  0  0  0  0  0  0  0  0  0  0  0
  -39.8988   78.6020  -47.8944 C   0  0  0  0  0  0  0  0  0  0  0  0
  -40.8593   78.6028  -48.9714 C   0  0  0  0  0  0  0  0  0  0  0  0
  -42.2560   78.7843  -48.7674 C   0  0  0  0  0  0  0  0  0  0  0  0
  -42.6222   78.9734  -47.4358 C   0  0  0  0  0  0  0  0  0  0  0  0
  -41.6849   78.9889  -46.3661 C   0  0  0  0  0  0  0  0  0  0  0  0
  -40.3123   78.8090  -46.5454 C   0  0  0  0  0  0  0  0  0  0  0  0
  -42.7426   79.2397  -45.3226 C   0  0  0  0  0  0  0  0  0  0  0  0
  -43.8002   79.2357  -46.5315 C   0  0  0  0  0  0  0  0  0  0  0  0
  -38.1834   75.1911  -49.1950 C   0  0  0  0  0  0  0  0  0  0  0  0
  -37.7512   73.9791  -48.3543 C   0  0  0  0  0  0  0  0  0  0  0  0
  -37.5667   72.0400  -50.4361 O   0  0  0  0  0  0  0  0  0  0  0  0
  1  2  1  0
  2  3  1  0
  3  4  2  0
  3 25  1  0
  4  5  1  0
  5  6  2  0
  6  7  1  0
  6 25  1  0
  7  8  2  0
  7  9  1  0
  9 10  1  0
  9 24  1  0
 10 11  1  0
 11 12  1  0
 12 13  1  0
 12 23  1  0
 13 14  1  0
 14 15  1  0
 15 16  2  0
 15 20  1  0
 16 17  1  0
 17 18  2  0
 18 19  1  0
 18 22  1  0
 19 20  2  0
 19 21  1  0
 21 22  1  0
 23 24  1  0
M  END
>  <cluster>  (33) 
cluster_90006

>  <glide_score>  (33) 
-6.71718739370932

>  <mmgbsa_dG>  (33) 
-47.8297269686518

$$$$
No_1549
     RDKit          3D

 21 23  0  0  1  0  0  0  0  0999 V2000
  -44.4231   79.1368  -46.1647 C   0  0  0  0  0  0  0  0  0  0  0  0
  -43.6183   78.6206  -47.2120 O   0  0  0  0  0  0  0  0  0  0  0  0
  -42.2852   78.7254  -47.0127 C   0  0  0  0  0  0  0  0  0  0  0  0
  -41.4998   79.0030  -45.9209 C   0  0  0  0  0  0  0  0  0  0  0  0
  -40.1011   79.0274  -46.2152 C   0  0  0  0  0  0  0  0  0  0  0  0
  -39.0522   79.4017  -45.2061 C   0  0  0  0  0  0  0  0  0  0  0  0
  -37.9008   78.4972  -45.2109 N   0  0  0  0  0  0  0  0  0  0  0  0
  -36.6503   78.8361  -45.5743 C   0  0  0  0  0  0  0  0  0  0  0  0
  -36.3692   79.9731  -45.9505 O   0  0  0  0  0  0  0  0  0  0  0  0
  -35.5113   77.7990  -45.5216 C   0  0  0  0  0  0  0  0  0  0  0  0
  -35.6828   76.6025  -44.6472 N   0  0  2  0  0  0  0  0  0  0  0  0
  -35.6523   76.9073  -43.1817 C   0  0  0  0  0  0  0  0  0  0  0  0
  -36.0381   75.6631  -42.3460 C   0  0  0  0  0  0  0  0  0  0  0  0
  -35.2047   74.5120  -42.7797 C   0  0  0  0  0  0  0  0  0  0  0  0
  -34.8702   73.0609  -41.9174 S   0  0  0  0  0  0  0  0  0  0  0  0
  -33.9813   72.4090  -43.1910 N   0  0  0  0  0  0  0  0  0  0  0  0
  -33.9236   73.2281  -44.2071 N   0  0  0  0  0  0  0  0  0  0  0  0
  -34.6129   74.4338  -43.9986 C   0  0  0  0  0  0  0  0  0  0  0  0
  -34.7174   75.5200  -45.0360 C   0  0  0  0  0  0  0  0  0  0  0  0
  -39.8501   78.7004  -47.5254 C   0  0  0  0  0  0  0  0  0  0  0  0
  -41.3200   78.4755  -48.4378 S   0  0  0  0  0  0  0  0  0  0  0  0
  1  2  1  0
  2  3  1  0
  3  4  2  0
  3 21  1  0
  4  5  1  0
  5  6  1  0
  5 20  2  0
  6  7  1  0
  7  8  1  0
  8  9  2  0
  8 10  1  0
 11 10  1  6
 11 12  1  0
 11 19  1  0
 12 13  1  0
 13 14  1  0
 14 15  1  0
 14 18  2  0
 15 16  1  0
 16 17  2  0
 17 18  1  0
 18 19  1  0
 20 21  1  0
M  CHG  1  11   1
M  END
>  <cluster>  (34) 
cluster_49033

>  <glide_score>  (34) 
-6.82788558985154

>  <mmgbsa_dG>  (34) 
-47.7231769248756

$$$$
No_3979
     RDKit          3D

 22 23  0  0  1  0  0  0  0  0999 V2000
  -34.9153   76.9151  -47.0113 C   0  0  0  0  0  0  0  0  0  0  0  0
  -36.0902   76.0114  -47.1684 N   0  0  2  0  0  0  0  0  0  0  0  0
  -35.9090   75.0185  -48.2826 C   0  0  1  0  0  0  0  0  0  0  0  0
  -34.6766   74.1184  -48.0234 C   0  0  0  0  0  0  0  0  0  0  0  0
  -34.5818   72.8345  -48.8590 C   0  0  0  0  0  0  0  0  0  0  0  0
  -33.5236   72.2033  -48.8126 O   0  0  0  0  0  0  0  0  0  0  0  0
  -35.6528   72.3976  -49.5561 N   0  0  0  0  0  0  0  0  0  0  0  0
  -35.5718   71.1664  -50.3448 C   0  0  0  0  0  0  0  0  0  0  0  0
  -36.9107   73.1375  -49.6695 C   0  0  0  0  0  0  0  0  0  0  0  0
  -37.1472   74.1221  -48.5186 C   0  0  0  0  0  0  0  0  0  0  0  0
  -37.3742   76.7643  -47.2446 C   0  0  0  0  0  0  0  0  0  0  0  0
  -37.5978   77.7932  -46.1072 C   0  0  0  0  0  0  0  0  0  0  0  0
  -38.9952   78.2027  -46.0077 N   0  0  0  0  0  0  0  0  0  0  0  0
  -39.7449   78.6876  -47.0067 C   0  0  0  0  0  0  0  0  0  0  0  0
  -39.2639   79.0027  -48.0928 O   0  0  0  0  0  0  0  0  0  0  0  0
  -41.2276   78.7540  -46.7494 C   0  0  0  0  0  0  0  0  0  0  0  0
  -41.7140   79.0049  -45.4447 C   0  0  0  0  0  0  0  0  0  0  0  0
  -43.0972   79.1237  -45.2246 C   0  0  0  0  0  0  0  0  0  0  0  0
  -43.9607   78.9974  -46.3239 C   0  0  0  0  0  0  0  0  0  0  0  0
  -43.5220   78.7292  -47.5689 N   0  0  0  0  0  0  0  0  0  0  0  0
  -42.1942   78.6180  -47.7865 C   0  0  0  0  0  0  0  0  0  0  0  0
  -41.8337   78.3316  -49.2363 C   0  0  0  0  0  0  0  0  0  0  0  0
  2  1  1  6
  2  3  1  0
  2 11  1  0
  3  4  1  1
  3 10  1  0
  4  5  1  0
  5  6  2  0
  5  7  1  0
  7  8  1  0
  7  9  1  0
  9 10  1  0
 11 12  1  0
 12 13  1  0
 13 14  1  0
 14 15  2  0
 14 16  1  0
 16 17  2  0
 16 21  1  0
 17 18  1  0
 18 19  2  0
 19 20  1  0
 20 21  2  0
 21 22  1  0
M  CHG  1   2   1
M  END
>  <cluster>  (35) 
cluster_30359

>  <glide_score>  (35) 
-6.63739945534276

>  <mmgbsa_dG>  (35) 
-47.6866986367095

$$$$
No_4918
     RDKit          3D

 23 25  0  0  1  0  0  0  0  0999 V2000
  -38.0529   77.3343  -50.0633 C   0  0  0  0  0  0  0  0  0  0  0  0
  -38.5431   77.8775  -48.7249 C   0  0  0  0  0  0  0  0  0  0  0  0
  -37.5961   78.0103  -47.6924 C   0  0  0  0  0  0  0  0  0  0  0  0
  -37.9761   78.5263  -46.4449 C   0  0  0  0  0  0  0  0  0  0  0  0
  -36.9902   78.6182  -45.3222 C   0  0  0  0  0  0  0  0  0  0  0  0
  -36.7226   79.7071  -44.8078 O   0  0  0  0  0  0  0  0  0  0  0  0
  -36.5178   77.4152  -44.9449 N   0  0  0  0  0  0  0  0  0  0  0  0
  -35.6759   77.1297  -43.9368 C   0  0  0  0  0  0  0  0  0  0  0  0
  -35.1212   77.9527  -43.2076 O   0  0  0  0  0  0  0  0  0  0  0  0
  -35.5222   75.8051  -43.8134 N   0  0  0  0  0  0  0  0  0  0  0  0
  -34.6996   75.1284  -42.8759 C   0  0  0  0  0  0  0  0  0  0  0  0
  -35.3006   73.9697  -42.1053 C   0  0  0  0  0  0  0  0  0  0  0  0
  -34.3050   73.7045  -43.2015 C   0  0  0  0  0  0  0  0  0  0  0  0
  -39.3102   78.9102  -46.2363 C   0  0  0  0  0  0  0  0  0  0  0  0
  -40.3218   78.7093  -47.2125 C   0  0  0  0  0  0  0  0  0  0  0  0
  -41.6597   79.0023  -46.8158 N   0  0  0  0  0  0  0  0  0  0  0  0
  -42.0189   79.1599  -45.4079 C   0  0  0  0  0  0  0  0  0  0  0  0
  -43.4818   78.7562  -45.3006 C   0  0  0  0  0  0  0  0  0  0  0  0
  -44.0419   79.1377  -46.6635 C   0  0  0  0  0  0  0  0  0  0  0  0
  -42.8770   78.8352  -47.6063 C   0  0  0  0  0  0  0  0  0  0  0  0
  -39.9098   78.2145  -48.4994 C   0  0  0  0  0  0  0  0  0  0  0  0
  -40.8396   77.9933  -49.6078 C   0  0  0  0  0  0  0  0  0  0  0  0
  -41.5724   77.8076  -50.4853 N   0  0  0  0  0  0  0  0  0  0  0  0
  1  2  1  0
  2  3  2  0
  2 21  1  0
  3  4  1  0
  4  5  1  0
  4 14  2  0
  5  6  2  0
  5  7  1  0
  7  8  1  0
  8  9  2  0
  8 10  1  0
 10 11  1  0
 11 12  1  0
 11 13  1  0
 12 13  1  0
 14 15  1  0
 15 16  1  0
 15 21  2  0
 16 17  1  0
 16 20  1  0
 17 18  1  0
 18 19  1  0
 19 20  1  0
 21 22  1  0
 22 23  3  0
M  END
>  <cluster>  (36) 
cluster_4918

>  <glide_score>  (36) 
-6.5204066217269

>  <mmgbsa_dG>  (36) 
-47.6574997411517

$$$$
No_1495
     RDKit          3D

 25 27  0  0  1  0  0  0  0  0999 V2000
  -42.5776   78.9973  -49.0136 C   0  0  0  0  0  0  0  0  0  0  0  0
  -42.7498   79.0024  -47.5693 N   0  0  0  0  0  0  0  0  0  0  0  0
  -43.9810   79.0253  -46.9350 C   0  0  0  0  0  0  0  0  0  0  0  0
  -43.7722   79.0339  -45.5872 C   0  0  0  0  0  0  0  0  0  0  0  0
  -42.3721   79.0020  -45.3676 C   0  0  0  0  0  0  0  0  0  0  0  0
  -41.7556   79.0020  -46.5901 C   0  0  0  0  0  0  0  0  0  0  0  0
  -40.3083   78.9974  -46.9098 C   0  0  0  0  0  0  0  0  0  0  0  0
  -39.8873   78.9867  -48.0695 O   0  0  0  0  0  0  0  0  0  0  0  0
  -39.4933   79.0507  -45.8483 N   0  0  0  0  0  0  0  0  0  0  0  0
  -38.0830   79.0111  -45.8979 C   0  0  0  0  0  0  0  0  0  0  0  0
  -37.2489   79.9319  -45.2074 C   0  0  0  0  0  0  0  0  0  0  0  0
  -35.9570   79.5448  -45.4357 C   0  0  0  0  0  0  0  0  0  0  0  0
  -34.6602   80.1210  -44.9710 C   0  0  0  0  0  0  0  0  0  0  0  0
  -36.0095   78.4085  -46.2312 N   0  0  0  0  0  0  0  0  0  0  0  0
  -34.9188   77.6914  -46.6512 O   0  0  0  0  0  0  0  0  0  0  0  0
  -34.6041   76.6774  -45.7151 C   0  0  0  0  0  0  0  0  0  0  0  0
  -33.4616   75.8189  -46.2730 C   0  0  0  0  0  0  0  0  0  0  0  0
  -33.7748   75.0293  -47.4632 N   0  0  0  0  0  0  0  0  0  0  0  0
  -34.7607   73.9845  -47.1830 C   0  0  0  0  0  0  0  0  0  0  0  0
  -34.9964   73.0536  -48.3869 C   0  0  0  0  0  0  0  0  0  0  0  0
  -33.7553   72.4972  -48.8084 O   0  0  0  0  0  0  0  0  0  0  0  0
  -32.8384   73.5122  -49.2011 C   0  0  0  0  0  0  0  0  0  0  0  0
  -32.5583   74.4192  -47.9921 C   0  0  0  0  0  0  0  0  0  0  0  0
  -37.3169   78.0735  -46.5361 C   0  0  0  0  0  0  0  0  0  0  0  0
  -37.6219   76.8725  -47.3757 C   0  0  0  0  0  0  0  0  0  0  0  0
  1  2  1  0
  2  3  1  0
  2  6  1  0
  3  4  2  0
  4  5  1  0
  5  6  2  0
  6  7  1  0
  7  8  2  0
  7  9  1  0
  9 10  1  0
 10 11  1  0
 10 24  2  0
 11 12  2  0
 12 13  1  0
 12 14  1  0
 14 15  1  0
 14 24  1  0
 15 16  1  0
 16 17  1  0
 17 18  1  0
 18 19  1  0
 18 23  1  0
 19 20  1  0
 20 21  1  0
 21 22  1  0
 22 23  1  0
 24 25  1  0
M  END
>  <cluster>  (37) 
cluster_17323

>  <glide_score>  (37) 
-6.62199209076779

>  <mmgbsa_dG>  (37) 
-47.5488967822239

$$$$
No_2000
     RDKit          3D

 22 24  0  0  1  0  0  0  0  0999 V2000
  -33.3317   80.4786  -45.9142 C   0  0  0  0  0  0  0  0  0  0  0  0
  -33.9987   79.4057  -45.0356 C   0  0  1  0  0  0  0  0  0  0  0  0
  -33.6916   79.5617  -43.6069 N   0  0  0  0  0  0  0  0  0  0  0  0
  -33.8692   80.6388  -42.8265 C   0  0  0  0  0  0  0  0  0  0  0  0
  -34.3218   81.7193  -43.2077 O   0  0  0  0  0  0  0  0  0  0  0  0
  -33.5224   80.3980  -41.5571 N   0  0  0  0  0  0  0  0  0  0  0  0
  -33.5633   81.3358  -40.4850 C   0  0  0  0  0  0  0  0  0  0  0  0
  -34.2776   80.9224  -39.2149 C   0  0  0  0  0  0  0  0  0  0  0  0
  -32.7749   81.0085  -39.2365 C   0  0  0  0  0  0  0  0  0  0  0  0
  -35.4837   79.2371  -45.3651 C   0  0  0  0  0  0  0  0  0  0  0  0
  -35.7860   78.2691  -46.2330 N   0  0  0  0  0  0  0  0  0  0  0  0
  -37.0789   78.1299  -46.6039 C   0  0  0  0  0  0  0  0  0  0  0  0
  -37.3511   76.9854  -47.5642 C   0  0  0  0  0  0  0  0  0  0  0  0
  -38.0868   78.9968  -46.1053 C   0  0  0  0  0  0  0  0  0  0  0  0
  -39.4658   78.9202  -46.4323 N   0  0  0  0  0  0  0  0  0  0  0  0
  -40.5462   79.1772  -45.6083 C   0  0  0  0  0  0  0  0  0  0  0  0
  -41.6893   79.0026  -46.3343 C   0  0  0  0  0  0  0  0  0  0  0  0
  -43.1175   79.1647  -45.8951 C   0  0  0  0  0  0  0  0  0  0  0  0
  -41.2030   78.6347  -47.6189 C   0  0  0  0  0  0  0  0  0  0  0  0
  -39.8811   78.6035  -47.6780 N   0  0  0  0  0  0  0  0  0  0  0  0
  -37.6374   79.9862  -45.2077 C   0  0  0  0  0  0  0  0  0  0  0  0
  -36.3468   80.1058  -44.8351 N   0  0  0  0  0  0  0  0  0  0  0  0
  2  1  1  6
  2  3  1  0
  2 10  1  0
  3  4  1  0
  4  5  2  0
  4  6  1  0
  6  7  1  0
  7  8  1  0
  7  9  1  0
  8  9  1  0
 10 11  2  0
 10 22  1  0
 11 12  1  0
 12 13  1  0
 12 14  2  0
 14 15  1  0
 14 21  1  0
 15 16  1  0
 15 20  1  0
 16 17  2  0
 17 18  1  0
 17 19  1  0
 19 20  2  0
 21 22  2  0
M  END
>  <cluster>  (38) 
cluster_96968

>  <glide_score>  (38) 
-6.53741084050134

>  <mmgbsa_dG>  (38) 
-47.4915309254357

$$$$
No_3205
     RDKit          3D

 24 27  0  0  1  0  0  0  0  0999 V2000
  -40.7730   78.3371  -50.1979 C   0  0  0  0  0  0  0  0  0  0  0  0
  -40.3799   78.5005  -48.7551 C   0  0  0  0  0  0  0  0  0  0  0  0
  -39.0589   78.4068  -48.2467 C   0  0  0  0  0  0  0  0  0  0  0  0
  -39.0878   78.5939  -46.8957 C   0  0  0  0  0  0  0  0  0  0  0  0
  -37.9436   78.5351  -45.9156 C   0  0  2  0  0  0  0  0  0  0  0  0
  -37.2567   79.9001  -45.7363 C   0  0  0  0  0  0  0  0  0  0  0  0
  -35.9790   79.8401  -44.8836 C   0  0  0  0  0  0  0  0  0  0  0  0
  -35.5249   80.8746  -44.3983 O   0  0  0  0  0  0  0  0  0  0  0  0
  -35.3717   78.6581  -44.6959 N   0  0  0  0  0  0  0  0  0  0  0  0
  -35.8520   77.3503  -45.1462 C   0  0  2  0  0  0  0  0  0  0  0  0
  -34.6612   76.4430  -45.5346 C   0  0  0  0  0  0  0  0  0  0  0  0
  -34.5727   75.1904  -44.6986 C   0  0  0  0  0  0  0  0  0  0  0  0
  -34.3218   73.8686  -45.1638 C   0  0  0  0  0  0  0  0  0  0  0  0
  -34.3212   72.9604  -44.1996 N   0  0  0  0  0  0  0  0  0  0  0  0
  -34.5628   73.6746  -43.0772 N   0  0  0  0  0  0  0  0  0  0  0  0
  -34.6180   73.0098  -41.7921 C   0  0  0  0  0  0  0  0  0  0  0  0
  -34.7222   75.0158  -43.3482 C   0  0  0  0  0  0  0  0  0  0  0  0
  -36.8802   77.4882  -46.2878 C   0  0  0  0  0  0  0  0  0  0  0  0
  -40.4106   78.8734  -46.5472 N   0  0  0  0  0  0  0  0  0  0  0  0
  -40.8621   79.2141  -45.2044 C   0  0  0  0  0  0  0  0  0  0  0  0
  -41.2139   78.7360  -47.6926 C   0  0  0  0  0  0  0  0  0  0  0  0
  -42.7254   78.8177  -47.7699 C   0  0  0  0  0  0  0  0  0  0  0  0
  -43.6700   78.3258  -46.6997 C   0  0  0  0  0  0  0  0  0  0  0  0
  -43.6031   79.7999  -47.0349 C   0  0  0  0  0  0  0  0  0  0  0  0
  1  2  1  0
  2  3  1  0
  2 21  2  0
  3  4  2  0
  5  4  1  6
  4 19  1  0
  5  6  1  0
  5 18  1  0
  6  7  1  0
  7  8  2  0
  7  9  1  0
  9 10  1  0
 10 11  1  6
 10 18  1  0
 11 12  1  0
 12 13  1  0
 12 17  2  0
 13 14  2  0
 14 15  1  0
 15 16  1  0
 15 17  1  0
 19 20  1  0
 19 21  1  0
 21 22  1  0
 22 23  1  0
 22 24  1  0
 23 24  1  0
M  END
>  <cluster>  (39) 
cluster_77069

>  <glide_score>  (39) 
-6.54464389401964

>  <mmgbsa_dG>  (39) 
-47.4097882931746

$$$$
No_1405
     RDKit          3D

 24 25  0  0  1  0  0  0  0  0999 V2000
  -44.2233   78.8455  -46.7977 C   0  0  0  0  0  0  0  0  0  0  0  0
  -42.7236   78.8481  -46.6620 C   0  0  0  0  0  0  0  0  0  0  0  0
  -41.9938   79.1303  -45.4775 C   0  0  0  0  0  0  0  0  0  0  0  0
  -40.6557   79.1203  -45.7571 C   0  0  0  0  0  0  0  0  0  0  0  0
  -39.5530   79.5703  -44.8470 C   0  0  0  0  0  0  0  0  0  0  0  0
  -40.5237   78.7531  -47.0976 N   0  0  0  0  0  0  0  0  0  0  0  0
  -39.2853   78.6027  -47.8468 C   0  0  0  0  0  0  0  0  0  0  0  0
  -39.2862   78.9218  -49.0335 O   0  0  0  0  0  0  0  0  0  0  0  0
  -38.0001   78.0270  -47.2283 C   0  0  1  0  0  0  0  0  0  0  0  0
  -37.4789   76.8679  -48.1158 C   0  0  0  0  0  0  0  0  0  0  0  0
  -36.8178   75.7987  -47.3231 N   0  0  1  0  0  0  0  0  0  0  0  0
  -36.7150   74.5263  -48.0780 C   0  0  0  0  0  0  0  0  0  0  0  0
  -35.5131   76.1999  -46.7456 C   0  0  0  0  0  0  0  0  0  0  0  0
  -35.5287   77.3980  -45.8939 N   0  0  0  0  0  0  0  0  0  0  0  0
  -35.6027   77.4095  -44.5381 C   0  0  0  0  0  0  0  0  0  0  0  0
  -35.5222   78.4444  -43.8778 O   0  0  0  0  0  0  0  0  0  0  0  0
  -35.8176   76.2053  -43.9773 N   0  0  0  0  0  0  0  0  0  0  0  0
  -35.8925   75.9176  -42.5551 C   0  0  0  0  0  0  0  0  0  0  0  0
  -35.0465   74.6719  -42.2516 C   0  0  0  0  0  0  0  0  0  0  0  0
  -37.3390   75.7345  -42.1122 C   0  0  0  0  0  0  0  0  0  0  0  0
  -35.5117   78.6457  -46.6719 C   0  0  0  0  0  0  0  0  0  0  0  0
  -36.9340   79.1363  -47.0154 C   0  0  0  0  0  0  0  0  0  0  0  0
  -41.8043   78.6029  -47.6485 C   0  0  0  0  0  0  0  0  0  0  0  0
  -42.0680   78.2305  -49.0770 C   0  0  0  0  0  0  0  0  0  0  0  0
  1  2  1  0
  2  3  1  0
  2 23  2  0
  3  4  2  0
  4  5  1  0
  4  6  1  0
  6  7  1  0
  6 23  1  0
  7  8  2  0
  9  7  1  6
  9 10  1  0
  9 22  1  0
 10 11  1  0
 11 12  1  6
 11 13  1  0
 13 14  1  0
 14 15  1  0
 14 21  1  0
 15 16  2  0
 15 17  1  0
 17 18  1  0
 18 19  1  0
 18 20  1  0
 21 22  1  0
 23 24  1  0
M  CHG  1  11   1
M  END
>  <cluster>  (40) 
cluster_122753

>  <glide_score>  (40) 
-6.65784864858793

>  <mmgbsa_dG>  (40) 
-47.2224228641207

$$$$
No_3901
     RDKit          3D

 25 26  0  0  1  0  0  0  0  0999 V2000
  -29.3093   80.0240  -46.8052 C   0  0  0  0  0  0  0  0  0  0  0  0
  -30.7386   80.0005  -47.3332 C   0  0  0  0  0  0  0  0  0  0  0  0
  -31.1448   80.9558  -47.9934 O   0  0  0  0  0  0  0  0  0  0  0  0
  -31.4587   78.9145  -46.9996 N   0  0  0  0  0  0  0  0  0  0  0  0
  -32.7053   78.5922  -47.3890 C   0  0  0  0  0  0  0  0  0  0  0  0
  -33.4000   79.2383  -48.1745 O   0  0  0  0  0  0  0  0  0  0  0  0
  -33.1043   77.4472  -46.8083 N   0  0  0  0  0  0  0  0  0  0  0  0
  -34.3552   76.7138  -47.0118 C   0  0  1  0  0  0  0  0  0  0  0  0
  -35.5752   77.6262  -46.7267 C   0  0  0  0  0  0  0  0  0  0  0  0
  -36.9013   76.8683  -46.5431 C   0  0  0  0  0  0  0  0  0  0  0  0
  -37.8979   77.2387  -47.5678 N   0  0  0  0  0  0  0  0  0  0  0  0
  -38.7507   78.2733  -47.3897 C   0  0  0  0  0  0  0  0  0  0  0  0
  -39.1300   79.0040  -48.3054 O   0  0  0  0  0  0  0  0  0  0  0  0
  -39.2436   78.3726  -46.1457 N   0  0  0  0  0  0  0  0  0  0  0  0
  -40.1861   79.3643  -45.6465 C   0  0  0  0  0  0  0  0  0  0  0  0
  -41.6295   79.0923  -45.9761 C   0  0  0  0  0  0  0  0  0  0  0  0
  -42.6874   79.4026  -45.0711 C   0  0  0  0  0  0  0  0  0  0  0  0
  -43.9348   79.2059  -45.5898 C   0  0  0  0  0  0  0  0  0  0  0  0
  -43.8550   78.5986  -47.2071 S   0  0  0  0  0  0  0  0  0  0  0  0
  -42.1147   78.6101  -47.1667 C   0  0  0  0  0  0  0  0  0  0  0  0
  -37.6386   76.7269  -48.9242 C   0  0  0  0  0  0  0  0  0  0  0  0
  -37.5038   75.1940  -49.0129 C   0  0  0  0  0  0  0  0  0  0  0  0
  -36.2218   74.8068  -49.4924 O   0  0  0  0  0  0  0  0  0  0  0  0
  -35.1760   74.7334  -48.5305 C   0  0  0  0  0  0  0  0  0  0  0  0
  -34.3474   76.0340  -48.4062 C   0  0  0  0  0  0  0  0  0  0  0  0
  1  2  1  0
  2  3  2  0
  2  4  1  0
  4  5  1  0
  5  6  2  0
  5  7  1  0
  8  7  1  6
  8  9  1  0
  8 25  1  0
  9 10  1  0
 10 11  1  0
 11 12  1  0
 11 21  1  0
 12 13  2  0
 12 14  1  0
 14 15  1  0
 15 16  1  0
 16 17  1  0
 16 20  2  0
 17 18  2  0
 18 19  1  0
 19 20  1  0
 21 22  1  0
 22 23  1  0
 23 24  1  0
 24 25  1  0
M  END
>  <cluster>  (41) 
cluster_46109

>  <glide_score>  (41) 
-7.29192120561287

>  <mmgbsa_dG>  (41) 
-47.1173370357792

$$$$
No_2477
     RDKit          3D

 22 24  0  0  1  0  0  0  0  0999 V2000
  -34.7094   73.5212  -42.1181 C   0  0  0  0  0  0  0  0  0  0  0  0
  -34.5736   73.7474  -43.6195 C   0  0  0  0  0  0  0  0  0  0  0  0
  -34.3210   72.7729  -44.3328 O   0  0  0  0  0  0  0  0  0  0  0  0
  -34.7077   75.0042  -44.1198 N   0  0  0  0  0  0  0  0  0  0  0  0
  -35.1847   76.1699  -43.3526 C   0  0  0  0  0  0  0  0  0  0  0  0
  -36.2218   77.0090  -44.1408 C   0  0  0  0  0  0  0  0  0  0  0  0
  -35.9030   77.1922  -45.5723 N   0  0  0  0  0  0  0  0  0  0  0  0
  -36.7786   77.6603  -46.5077 C   0  0  0  0  0  0  0  0  0  0  0  0
  -36.5134   77.6553  -47.7114 O   0  0  0  0  0  0  0  0  0  0  0  0
  -37.9327   78.1472  -45.9891 N   0  0  0  0  0  0  0  0  0  0  0  0
  -39.1263   78.4576  -46.6598 C   0  0  0  0  0  0  0  0  0  0  0  0
  -40.1564   78.7311  -45.7613 N   0  0  0  0  0  0  0  0  0  0  0  0
  -41.4156   78.9044  -46.2970 C   0  0  0  0  0  0  0  0  0  0  0  0
  -41.6544   78.8429  -47.5997 C   0  0  0  0  0  0  0  0  0  0  0  0
  -40.5470   78.6046  -48.5321 C   0  0  0  0  0  0  0  0  0  0  0  0
  -40.7280   78.5404  -49.7445 O   0  0  0  0  0  0  0  0  0  0  0  0
  -39.2673   78.4403  -47.9601 N   0  0  0  0  0  0  0  0  0  0  0  0
  -43.1170   78.9714  -47.9303 C   0  0  0  0  0  0  0  0  0  0  0  0
  -43.7731   79.2036  -46.5407 C   0  0  0  0  0  0  0  0  0  0  0  0
  -42.6585   79.0661  -45.4673 C   0  0  0  0  0  0  0  0  0  0  0  0
  -34.5510   76.7435  -45.9357 C   0  0  0  0  0  0  0  0  0  0  0  0
  -34.3344   75.2734  -45.5207 C   0  0  0  0  0  0  0  0  0  0  0  0
  1  2  1  0
  2  3  2  0
  2  4  1  0
  4  5  1  0
  4 22  1  0
  5  6  1  0
  6  7  1  0
  7  8  1  0
  7 21  1  0
  8  9  2  0
  8 10  1  0
 10 11  1  0
 11 12  1  0
 11 17  2  0
 12 13  1  0
 13 14  2  0
 13 20  1  0
 14 15  1  0
 14 18  1  0
 15 16  2  0
 15 17  1  0
 18 19  1  0
 19 20  1  0
 21 22  1  0
M  END
>  <cluster>  (42) 
cluster_123825

>  <glide_score>  (42) 
-6.74466681504093

>  <mmgbsa_dG>  (42) 
-47.1168813231197

$$$$
No_2469
     RDKit          3D

 24 26  0  0  1  0  0  0  0  0999 V2000
  -36.0607   77.3375  -49.9371 N   0  0  0  0  0  0  0  0  0  0  0  0
  -36.7009   76.2335  -48.9511 S   0  0  0  0  0  0  0  0  0  0  0  0
  -35.8447   75.0448  -48.8134 O   0  0  0  0  0  0  0  0  0  0  0  0
  -38.1387   76.0124  -49.1769 O   0  0  0  0  0  0  0  0  0  0  0  0
  -36.5184   77.1416  -47.4688 N   0  0  0  0  0  0  0  0  0  0  0  0
  -37.6548   77.5357  -46.7267 C   0  0  0  0  0  0  0  0  0  0  0  0
  -38.7155   78.2525  -47.1570 C   0  0  0  0  0  0  0  0  0  0  0  0
  -38.6954   78.8675  -48.4093 N   0  0  0  0  0  0  0  0  0  0  0  0
  -39.6821   78.9331  -49.2340 C   0  0  0  0  0  0  0  0  0  0  0  0
  -39.4943   79.4938  -50.4792 N   0  0  0  0  0  0  0  0  0  0  0  0
  -40.9746   78.5103  -48.9669 N   0  0  0  0  0  0  0  0  0  0  0  0
  -41.6608   77.7011  -49.9750 C   0  0  0  0  0  0  0  0  0  0  0  0
  -41.7261   78.7276  -47.7966 C   0  0  0  0  0  0  0  0  0  0  0  0
  -43.1214   78.9617  -47.8850 C   0  0  0  0  0  0  0  0  0  0  0  0
  -43.8998   79.1933  -46.7372 C   0  0  0  0  0  0  0  0  0  0  0  0
  -43.2860   79.2165  -45.4761 C   0  0  0  0  0  0  0  0  0  0  0  0
  -41.8982   79.0212  -45.3762 C   0  0  0  0  0  0  0  0  0  0  0  0
  -41.1066   78.7846  -46.5178 C   0  0  0  0  0  0  0  0  0  0  0  0
  -39.7353   78.6021  -46.2816 N   0  0  0  0  0  0  0  0  0  0  0  0
  -35.1705   77.1469  -46.8500 C   0  0  0  0  0  0  0  0  0  0  0  0
  -34.9045   78.3941  -45.9884 C   0  0  0  0  0  0  0  0  0  0  0  0
  -34.9505   77.9484  -44.5171 C   0  0  0  0  0  0  0  0  0  0  0  0
  -35.1844   76.4306  -44.5040 C   0  0  0  0  0  0  0  0  0  0  0  0
  -34.9233   75.9436  -45.9306 C   0  0  0  0  0  0  0  0  0  0  0  0
  1  2  1  0
  2  3  2  0
  2  4  2  0
  2  5  1  0
  5  6  1  0
  5 20  1  0
  6  7  2  0
  7  8  1  0
  7 19  1  0
  8  9  2  0
  9 10  1  0
  9 11  1  0
 11 12  1  0
 11 13  1  0
 13 14  1  0
 13 18  2  0
 14 15  2  0
 15 16  1  0
 16 17  2  0
 17 18  1  0
 18 19  1  0
 20 21  1  0
 20 24  1  0
 21 22  1  0
 22 23  1  0
 23 24  1  0
M  CHG  1   1  -1
M  END
>  <cluster>  (43) 
cluster_86885

>  <glide_score>  (43) 
-6.83732772112035

>  <mmgbsa_dG>  (43) 
-46.7714474224776

$$$$
No_4220
     RDKit          3D

 23 25  0  0  1  0  0  0  0  0999 V2000
  -39.5887   78.9998  -48.3870 O   0  0  0  0  0  0  0  0  0  0  0  0
  -39.9271   78.6601  -47.2533 C   0  0  0  0  0  0  0  0  0  0  0  0
  -41.3655   78.7266  -46.8381 C   0  0  0  0  0  0  0  0  0  0  0  0
  -41.7484   79.0035  -45.5077 C   0  0  0  0  0  0  0  0  0  0  0  0
  -43.1167   79.1348  -45.2077 C   0  0  0  0  0  0  0  0  0  0  0  0
  -44.0512   79.0030  -46.2500 C   0  0  0  0  0  0  0  0  0  0  0  0
  -43.6968   78.7301  -47.5195 N   0  0  0  0  0  0  0  0  0  0  0  0
  -42.3853   78.6064  -47.8060 C   0  0  0  0  0  0  0  0  0  0  0  0
  -39.0615   78.2035  -46.3366 N   0  0  0  0  0  0  0  0  0  0  0  0
  -37.6267   78.0943  -46.5583 C   0  0  1  0  0  0  0  0  0  0  0  0
  -36.9522   79.4445  -46.8108 C   0  0  0  0  0  0  0  0  0  0  0  0
  -35.7814   78.9934  -45.9193 C   0  0  1  0  0  0  0  0  0  0  0  0
  -34.6091   78.3430  -46.6479 C   0  0  0  0  0  0  0  0  0  0  0  0
  -33.5112   78.0213  -45.6613 C   0  0  0  0  0  0  0  0  0  0  0  0
  -32.9390   79.3245  -45.1013 C   0  0  0  0  0  0  0  0  0  0  0  0
  -33.9713   80.2475  -44.5836 N   0  0  0  0  0  0  0  0  0  0  0  0
  -33.3699   81.5181  -43.5449 S   0  0  0  0  0  0  0  0  0  0  0  0
  -33.5221   80.8095  -41.8622 C   0  0  0  0  0  0  0  0  0  0  0  0
  -31.9362   81.6959  -43.8362 O   0  0  0  0  0  0  0  0  0  0  0  0
  -34.2760   82.6758  -43.6084 O   0  0  0  0  0  0  0  0  0  0  0  0
  -35.3419   80.1088  -44.9236 C   0  0  0  0  0  0  0  0  0  0  0  0
  -36.1906   80.8387  -44.4152 O   0  0  0  0  0  0  0  0  0  0  0  0
  -36.8106   78.0336  -45.2640 C   0  0  0  0  0  0  0  0  0  0  0  0
  1  2  2  0
  2  3  1  0
  2  9  1  0
  3  4  2  0
  3  8  1  0
  4  5  1  0
  5  6  2  0
  6  7  1  0
  7  8  2  0
 10  9  1  1
 10 11  1  0
 10 23  1  0
 12 11  1  6
 12 13  1  0
 12 23  1  0
 12 21  1  0
 13 14  1  0
 14 15  1  0
 15 16  1  0
 16 17  1  0
 16 21  1  0
 17 18  1  0
 17 19  2  0
 17 20  2  0
 21 22  2  0
M  END
>  <cluster>  (44) 
cluster_78084

>  <glide_score>  (44) 
-6.95519716433026

>  <mmgbsa_dG>  (44) 
-46.7531523503421

$$$$
No_1830
     RDKit          3D

 26 28  0  0  1  0  0  0  0  0999 V2000
  -34.6247   78.8729  -44.1830 C   0  0  0  0  0  0  0  0  0  0  0  0
  -35.7369   77.9800  -44.7797 C   0  0  2  0  0  0  0  0  0  0  0  0
  -35.5009   76.5512  -44.5784 N   0  0  0  0  0  0  0  0  0  0  0  0
  -35.2214   76.1526  -43.2054 C   0  0  0  0  0  0  0  0  0  0  0  0
  -35.0354   74.6520  -43.0526 C   0  0  0  0  0  0  0  0  0  0  0  0
  -35.5908   73.9863  -41.9442 C   0  0  0  0  0  0  0  0  0  0  0  0
  -35.3950   72.6005  -41.8108 C   0  0  0  0  0  0  0  0  0  0  0  0
  -34.6695   71.9275  -42.8077 C   0  0  0  0  0  0  0  0  0  0  0  0
  -34.1581   72.5390  -43.8974 N   0  0  0  0  0  0  0  0  0  0  0  0
  -34.3222   73.8770  -43.9948 C   0  0  0  0  0  0  0  0  0  0  0  0
  -36.0076   78.2674  -46.2943 C   0  0  2  0  0  0  0  0  0  0  0  0
  -37.5061   78.0579  -46.6468 C   0  0  0  0  0  0  0  0  0  0  0  0
  -38.3877   79.0022  -45.9662 N   0  0  0  0  0  0  0  0  0  0  0  0
  -39.7621   78.9952  -46.2516 C   0  0  0  0  0  0  0  0  0  0  0  0
  -40.2855   78.6027  -47.5062 C   0  0  0  0  0  0  0  0  0  0  0  0
  -41.6763   78.6029  -47.7303 C   0  0  0  0  0  0  0  0  0  0  0  0
  -42.5594   79.0029  -46.7084 C   0  0  0  0  0  0  0  0  0  0  0  0
  -44.0490   79.0285  -46.9610 C   0  0  0  0  0  0  0  0  0  0  0  0
  -42.0461   79.4007  -45.4607 C   0  0  0  0  0  0  0  0  0  0  0  0
  -40.6557   79.4026  -45.2389 C   0  0  0  0  0  0  0  0  0  0  0  0
  -35.1287   77.4600  -47.1997 N   0  0  1  0  0  0  0  0  0  0  0  0
  -35.3225   77.6538  -48.6536 C   0  0  0  0  0  0  0  0  0  0  0  0
  -33.9174   77.7042  -49.2542 C   0  0  0  0  0  0  0  0  0  0  0  0
  -33.1164   77.0421  -48.2395 N   0  0  0  0  0  0  0  0  0  0  0  0
  -31.6994   77.3411  -48.3834 C   0  0  0  0  0  0  0  0  0  0  0  0
  -33.6694   77.5602  -46.9982 C   0  0  0  0  0  0  0  0  0  0  0  0
  2  1  1  6
  2  3  1  0
  2 11  1  0
  3  4  1  0
  4  5  1  0
  5  6  2  0
  5 10  1  0
  6  7  1  0
  7  8  2  0
  8  9  1  0
  9 10  2  0
 11 12  1  6
 11 21  1  0
 12 13  1  0
 13 14  1  0
 14 15  2  0
 14 20  1  0
 15 16  1  0
 16 17  2  0
 17 18  1  0
 17 19  1  0
 19 20  2  0
 21 22  1  6
 21 26  1  0
 22 23  1  0
 23 24  1  0
 24 25  1  0
 24 26  1  0
M  CHG  1  21   1
M  END
>  <cluster>  (45) 
cluster_102074

>  <glide_score>  (45) 
-6.97803299078187

>  <mmgbsa_dG>  (45) 
-46.694994329453

$$$$
No_3309
     RDKit          3D

 20 22  0  0  1  0  0  0  0  0999 V2000
  -44.0772   79.4804  -46.6106 C   0  0  0  0  0  0  0  0  0  0  0  0
  -43.2794   78.6593  -47.6302 C   0  0  0  0  0  0  0  0  0  0  0  0
  -41.8019   78.7770  -47.4424 C   0  0  0  0  0  0  0  0  0  0  0  0
  -41.1621   78.6027  -46.2933 N   0  0  0  0  0  0  0  0  0  0  0  0
  -39.8699   78.7493  -46.6974 C   0  0  0  0  0  0  0  0  0  0  0  0
  -38.8324   78.6030  -45.7576 N   0  0  0  0  0  0  0  0  0  0  0  0
  -37.5301   79.2030  -45.9832 C   0  0  0  0  0  0  0  0  0  0  0  0
  -36.5338   78.1627  -45.5585 C   0  0  0  0  0  0  0  0  0  0  0  0
  -35.4504   77.8371  -46.3314 C   0  0  0  0  0  0  0  0  0  0  0  0
  -34.4752   76.5945  -45.6195 S   0  0  0  0  0  0  0  0  0  0  0  0
  -35.5359   76.5232  -44.2432 C   0  0  0  0  0  0  0  0  0  0  0  0
  -35.4094   75.7006  -43.1793 N   0  0  0  0  0  0  0  0  0  0  0  0
  -34.4566   74.5920  -43.2341 C   0  0  0  0  0  0  0  0  0  0  0  0
  -35.1568   73.5049  -42.4516 C   0  0  0  0  0  0  0  0  0  0  0  0
  -34.7223   72.3625  -42.3298 O   0  0  0  0  0  0  0  0  0  0  0  0
  -36.3221   73.9571  -42.0042 N   0  0  0  0  0  0  0  0  0  0  0  0
  -36.5797   75.3365  -42.3751 C   0  0  0  0  0  0  0  0  0  0  0  0
  -36.5441   77.4023  -44.3837 N   0  0  0  0  0  0  0  0  0  0  0  0
  -39.6910   78.9982  -47.9956 N   0  0  0  0  0  0  0  0  0  0  0  0
  -40.9602   78.9866  -48.4586 N   0  0  0  0  0  0  0  0  0  0  0  0
  1  2  1  0
  2  3  1  0
  3  4  2  0
  3 20  1  0
  4  5  1  0
  5  6  1  0
  5 19  2  0
  6  7  1  0
  7  8  1  0
  8  9  2  0
  8 18  1  0
  9 10  1  0
 10 11  1  0
 11 12  1  0
 11 18  2  0
 12 13  1  0
 12 17  1  0
 13 14  1  0
 14 15  2  0
 14 16  1  0
 16 17  1  0
 19 20  1  0
M  CHG  1  18   1
M  END
>  <cluster>  (46) 
cluster_29689

>  <glide_score>  (46) 
-6.76531377456865

>  <mmgbsa_dG>  (46) 
-46.6442437411752

$$$$
No_4202
     RDKit          3D

 26 28  0  0  1  0  0  0  0  0999 V2000
  -35.7466   77.8050  -43.2314 O   0  0  0  0  0  0  0  0  0  0  0  0
  -35.5204   76.6465  -43.5687 C   0  0  0  0  0  0  0  0  0  0  0  0
  -35.1205   76.3036  -44.7998 N   0  0  0  0  0  0  0  0  0  0  0  0
  -34.8193   77.1993  -45.9097 C   0  0  0  0  0  0  0  0  0  0  0  0
  -35.8104   76.9625  -47.0699 C   0  0  2  0  0  0  0  0  0  0  0  0
  -35.0845   77.0022  -48.2835 O   0  0  0  0  0  0  0  0  0  0  0  0
  -36.9942   77.9598  -47.1783 C   0  0  0  0  0  0  0  0  0  0  0  0
  -38.0751   77.3831  -48.1162 C   0  0  0  0  0  0  0  0  0  0  0  0
  -39.3262   78.2693  -48.2165 C   0  0  0  0  0  0  0  0  0  0  0  0
  -39.8460   78.6030  -46.8902 N   0  0  0  0  0  0  0  0  0  0  0  0
  -41.2234   78.8714  -46.7039 C   0  0  0  0  0  0  0  0  0  0  0  0
  -41.7684   79.0025  -45.4022 C   0  0  0  0  0  0  0  0  0  0  0  0
  -43.1400   79.2436  -45.2051 C   0  0  0  0  0  0  0  0  0  0  0  0
  -43.9970   79.3755  -46.3067 C   0  0  0  0  0  0  0  0  0  0  0  0
  -43.4760   79.2636  -47.6039 C   0  0  0  0  0  0  0  0  0  0  0  0
  -42.1085   79.0027  -47.8032 C   0  0  0  0  0  0  0  0  0  0  0  0
  -38.8752   79.2063  -45.9773 C   0  0  0  0  0  0  0  0  0  0  0  0
  -37.6443   78.3093  -45.8227 C   0  0  0  0  0  0  0  0  0  0  0  0
  -35.7234   75.5840  -42.7658 N   0  0  0  0  0  0  0  0  0  0  0  0
  -36.7218   75.6738  -41.6957 C   0  0  0  0  0  0  0  0  0  0  0  0
  -34.5825   74.6919  -42.5076 C   0  0  0  0  0  0  0  0  0  0  0  0
  -34.8907   73.2463  -42.3968 C   0  0  0  0  0  0  0  0  0  0  0  0
  -35.5170   72.5414  -41.4114 C   0  0  0  0  0  0  0  0  0  0  0  0
  -35.5224   71.1442  -41.6979 C   0  0  0  0  0  0  0  0  0  0  0  0
  -34.9253   70.7663  -42.8079 N   0  0  0  0  0  0  0  0  0  0  0  0
  -34.3224   72.1333  -43.5787 S   0  0  0  0  0  0  0  0  0  0  0  0
  1  2  2  0
  2  3  1  0
  2 19  1  0
  3  4  1  0
  4  5  1  0
  5  6  1  6
  5  7  1  0
  7  8  1  0
  7 18  1  0
  8  9  1  0
  9 10  1  0
 10 11  1  0
 10 17  1  0
 11 12  2  0
 11 16  1  0
 12 13  1  0
 13 14  2  0
 14 15  1  0
 15 16  2  0
 17 18  1  0
 19 20  1  0
 19 21  1  0
 21 22  1  0
 22 23  2  0
 22 26  1  0
 23 24  1  0
 24 25  2  0
 25 26  1  0
M  END
>  <cluster>  (47) 
cluster_109722

>  <glide_score>  (47) 
-6.63247076918294

>  <mmgbsa_dG>  (47) 
-46.4188219150674

$$$$
No_1182
     RDKit          3D

 22 24  0  0  1  0  0  0  0  0999 V2000
  -34.7367   73.1500  -41.8564 N   0  0  0  0  0  0  0  0  0  0  0  0
  -35.2212   74.3251  -42.4072 C   0  0  0  0  0  0  0  0  0  0  0  0
  -36.3208   75.0230  -42.0062 C   0  0  0  0  0  0  0  0  0  0  0  0
  -36.3271   76.1925  -42.8162 C   0  0  0  0  0  0  0  0  0  0  0  0
  -35.2796   76.0583  -43.6912 C   0  0  0  0  0  0  0  0  0  0  0  0
  -34.8049   76.8610  -44.8503 C   0  0  0  0  0  0  0  0  0  0  0  0
  -35.8767   76.9699  -45.8733 N   0  0  2  0  0  0  0  0  0  0  0  0
  -35.4491   76.4636  -47.2010 C   0  0  0  0  0  0  0  0  0  0  0  0
  -36.4699   78.3306  -45.9084 C   0  0  0  0  0  0  0  0  0  0  0  0
  -37.6783   78.4545  -46.7786 C   0  0  0  0  0  0  0  0  0  0  0  0
  -38.9993   78.2093  -46.5303 C   0  0  0  0  0  0  0  0  0  0  0  0
  -39.6774   78.6375  -47.7177 C   0  0  0  0  0  0  0  0  0  0  0  0
  -41.1750   78.5996  -47.9333 C   0  0  0  0  0  0  0  0  0  0  0  0
  -41.5786   78.3693  -49.0751 O   0  0  0  0  0  0  0  0  0  0  0  0
  -42.0472   78.8751  -46.9335 N   0  0  0  0  0  0  0  0  0  0  0  0
  -43.4783   79.0395  -47.2021 C   0  0  0  0  0  0  0  0  0  0  0  0
  -44.0692   79.6650  -45.9447 C   0  0  0  0  0  0  0  0  0  0  0  0
  -43.1636   79.1627  -44.8393 C   0  0  0  0  0  0  0  0  0  0  0  0
  -41.7942   79.0531  -45.5025 C   0  0  0  0  0  0  0  0  0  0  0  0
  -38.8117   79.0027  -48.6536 N   0  0  0  0  0  0  0  0  0  0  0  0
  -37.6056   78.9090  -48.0734 N   0  0  0  0  0  0  0  0  0  0  0  0
  -34.5790   74.9155  -43.4390 O   0  0  0  0  0  0  0  0  0  0  0  0
  1  2  1  0
  2  3  2  0
  2 22  1  0
  3  4  1  0
  4  5  2  0
  5  6  1  0
  5 22  1  0
  6  7  1  0
  7  8  1  6
  7  9  1  0
  9 10  1  0
 10 11  2  0
 10 21  1  0
 11 12  1  0
 12 13  1  0
 12 20  2  0
 13 14  2  0
 13 15  1  0
 15 16  1  0
 15 19  1  0
 16 17  1  0
 17 18  1  0
 18 19  1  0
 20 21  1  0
M  CHG  1   7   1
M  END
>  <cluster>  (48) 
cluster_96150

>  <glide_score>  (48) 
-6.53773032844749

>  <mmgbsa_dG>  (48) 
-46.4048668936302

$$$$
No_2814
     RDKit          3D

 22 24  0  0  1  0  0  0  0  0999 V2000
  -36.2492   73.4419  -48.4916 C   0  0  0  0  0  0  0  0  0  0  0  0
  -36.3728   74.9747  -48.5728 C   0  0  0  0  0  0  0  0  0  0  0  0
  -37.6398   75.3140  -49.3907 C   0  0  0  0  0  0  0  0  0  0  0  0
  -36.3274   75.5979  -47.2077 N   0  0  1  0  0  0  0  0  0  0  0  0
  -34.9505   75.6286  -46.6419 C   0  0  0  0  0  0  0  0  0  0  0  0
  -34.9367   76.0983  -45.1804 C   0  0  0  0  0  0  0  0  0  0  0  0
  -35.5834   77.4648  -45.0493 C   0  0  0  0  0  0  0  0  0  0  0  0
  -35.0464   78.3795  -44.4269 O   0  0  0  0  0  0  0  0  0  0  0  0
  -36.9602   77.5835  -45.7015 C   0  0  1  0  0  0  0  0  0  0  0  0
  -37.5088   79.0279  -45.7079 C   0  0  0  0  0  0  0  0  0  0  0  0
  -38.9618   79.0580  -45.6077 N   0  0  0  0  0  0  0  0  0  0  0  0
  -39.7995   79.0019  -46.7313 C   0  0  0  0  0  0  0  0  0  0  0  0
  -39.2351   78.9947  -47.9608 N   0  0  0  0  0  0  0  0  0  0  0  0
  -40.0488   78.8763  -49.0085 C   0  0  0  0  0  0  0  0  0  0  0  0
  -41.3740   78.8084  -48.9725 N   0  0  0  0  0  0  0  0  0  0  0  0
  -41.9681   78.8831  -47.7647 C   0  0  0  0  0  0  0  0  0  0  0  0
  -43.3660   78.9041  -47.6632 C   0  0  0  0  0  0  0  0  0  0  0  0
  -44.0134   78.9778  -46.4160 C   0  0  0  0  0  0  0  0  0  0  0  0
  -43.2474   79.0103  -45.2381 C   0  0  0  0  0  0  0  0  0  0  0  0
  -41.8431   79.0029  -45.3167 C   0  0  0  0  0  0  0  0  0  0  0  0
  -41.2020   78.9579  -46.5755 C   0  0  0  0  0  0  0  0  0  0  0  0
  -36.9854   76.9336  -47.1091 C   0  0  0  0  0  0  0  0  0  0  0  0
  1  2  1  0
  2  3  1  0
  4  2  1  6
  4  5  1  0
  4 22  1  0
  5  6  1  0
  6  7  1  0
  7  8  2  0
  7  9  1  0
  9 10  1  6
  9 22  1  0
 10 11  1  0
 11 12  1  0
 12 13  2  0
 12 21  1  0
 13 14  1  0
 14 15  2  0
 15 16  1  0
 16 17  1  0
 16 21  2  0
 17 18  2  0
 18 19  1  0
 19 20  2  0
 20 21  1  0
M  CHG  1   4   1
M  END
>  <cluster>  (49) 
cluster_81954

>  <glide_score>  (49) 
-6.84893600313816

>  <mmgbsa_dG>  (49) 
-46.3901797660365

$$$$
No_4910
     RDKit          3D

 22 24  0  0  1  0  0  0  0  0999 V2000
  -37.2421   76.6858  -47.3926 C   0  0  0  0  0  0  0  0  0  0  0  0
  -37.4439   78.0015  -46.6086 C   0  0  1  0  0  0  0  0  0  0  0  0
  -38.8620   78.2080  -46.2894 N   0  0  0  0  0  0  0  0  0  0  0  0
  -39.7929   78.6034  -47.1767 C   0  0  0  0  0  0  0  0  0  0  0  0
  -39.5496   78.7778  -48.3703 O   0  0  0  0  0  0  0  0  0  0  0  0
  -41.1593   78.8465  -46.6002 C   0  0  0  0  0  0  0  0  0  0  0  0
  -41.4089   79.0027  -45.3016 N   0  0  0  0  0  0  0  0  0  0  0  0
  -42.7733   79.2402  -45.2079 C   0  0  0  0  0  0  0  0  0  0  0  0
  -43.3192   79.2297  -46.4646 C   0  0  0  0  0  0  0  0  0  0  0  0
  -42.2800   78.9810  -47.3536 N   0  0  0  0  0  0  0  0  0  0  0  0
  -42.4458   78.8961  -48.7948 C   0  0  0  0  0  0  0  0  0  0  0  0
  -36.5279   78.1161  -45.3570 C   0  0  2  0  0  0  0  0  0  0  0  0
  -35.0658   78.2619  -45.7735 C   0  0  0  0  0  0  0  0  0  0  0  0
  -34.5854   79.5203  -46.4649 C   0  0  0  0  0  0  0  0  0  0  0  0
  -34.1247   79.2154  -45.0640 C   0  0  0  0  0  0  0  0  0  0  0  0
  -36.7220   76.9519  -44.4536 N   0  0  0  0  0  0  0  0  0  0  0  0
  -35.9235   76.8989  -43.2076 C   0  0  0  0  0  0  0  0  0  0  0  0
  -35.6615   75.4907  -42.8034 C   0  0  0  0  0  0  0  0  0  0  0  0
  -36.3230   74.5971  -42.0076 C   0  0  0  0  0  0  0  0  0  0  0  0
  -35.5257   73.4200  -41.9718 C   0  0  0  0  0  0  0  0  0  0  0  0
  -34.4392   73.6771  -42.7575 C   0  0  0  0  0  0  0  0  0  0  0  0
  -34.5156   74.9316  -43.2830 O   0  0  0  0  0  0  0  0  0  0  0  0
  2  1  1  1
  2  3  1  0
  2 12  1  0
  3  4  1  0
  4  5  2  0
  4  6  1  0
  6  7  2  0
  6 10  1  0
  7  8  1  0
  8  9  2  0
  9 10  1  0
 10 11  1  0
 12 13  1  0
 12 16  1  1
 13 14  1  0
 13 15  1  0
 14 15  1  0
 16 17  1  0
 17 18  1  0
 18 19  2  0
 18 22  1  0
 19 20  1  0
 20 21  2  0
 21 22  1  0
M  CHG  1  16   1
M  END
>  <cluster>  (50) 
cluster_78774

>  <glide_score>  (50) 
-6.95024507953068

>  <mmgbsa_dG>  (50) 
-46.3834134124554

$$$$
No_3361
     RDKit          3D

 25 27  0  0  1  0  0  0  0  0999 V2000
  -44.5700   79.0864  -46.5635 C   0  0  0  0  0  0  0  0  0  0  0  0
  -43.0556   79.0337  -46.4872 C   0  0  0  0  0  0  0  0  0  0  0  0
  -42.4118   79.4016  -45.2898 C   0  0  0  0  0  0  0  0  0  0  0  0
  -41.0071   79.4017  -45.2084 C   0  0  0  0  0  0  0  0  0  0  0  0
  -40.2300   78.9979  -46.3100 C   0  0  0  0  0  0  0  0  0  0  0  0
  -38.8201   79.0723  -46.2028 N   0  0  0  0  0  0  0  0  0  0  0  0
  -37.8980   78.3924  -46.9064 C   0  0  0  0  0  0  0  0  0  0  0  0
  -38.1511   77.4041  -47.5970 O   0  0  0  0  0  0  0  0  0  0  0  0
  -36.4619   78.9359  -46.7990 C   0  0  1  0  0  0  0  0  0  0  0  0
  -35.9244   78.8856  -45.3623 C   0  0  0  0  0  0  0  0  0  0  0  0
  -35.1874   77.5422  -45.2244 C   0  0  1  0  0  0  0  0  0  0  0  0
  -35.9032   76.6030  -44.3688 N   0  0  0  0  0  0  0  0  0  0  0  0
  -35.8857   76.6409  -43.0298 C   0  0  0  0  0  0  0  0  0  0  0  0
  -35.5220   77.6373  -42.4078 O   0  0  0  0  0  0  0  0  0  0  0  0
  -36.2970   75.3648  -42.2780 C   0  0  0  0  0  0  0  0  0  0  0  0
  -35.4236   74.2075  -42.5081 N   0  0  0  0  0  0  0  0  0  0  0  0
  -34.3240   74.0727  -43.3580 C   0  0  0  0  0  0  0  0  0  0  0  0
  -33.9078   72.7657  -43.2813 C   0  0  0  0  0  0  0  0  0  0  0  0
  -34.7221   72.0685  -42.4018 N   0  0  0  0  0  0  0  0  0  0  0  0
  -35.5592   72.9968  -41.9487 C   0  0  0  0  0  0  0  0  0  0  0  0
  -35.0255   76.9774  -46.6460 C   0  0  0  0  0  0  0  0  0  0  0  0
  -35.4270   78.1158  -47.5855 C   0  0  0  0  0  0  0  0  0  0  0  0
  -40.8728   78.6223  -47.5080 C   0  0  0  0  0  0  0  0  0  0  0  0
  -42.2749   78.6506  -47.6040 C   0  0  0  0  0  0  0  0  0  0  0  0
  -42.9090   78.2955  -48.9256 C   0  0  0  0  0  0  0  0  0  0  0  0
  1  2  1  0
  2  3  2  0
  2 24  1  0
  3  4  1  0
  4  5  2  0
  5  6  1  0
  5 23  1  0
  6  7  1  0
  7  8  2  0
  9  7  1  1
  9 10  1  0
  9 22  1  0
 10 11  1  0
 11 12  1  1
 11 21  1  0
 12 13  1  0
 13 14  2  0
 13 15  1  0
 15 16  1  0
 16 17  1  0
 16 20  1  0
 17 18  2  0
 18 19  1  0
 19 20  2  0
 21 22  1  0
 23 24  2  0
 24 25  1  0
M  END
>  <cluster>  (51) 
cluster_103605

>  <glide_score>  (51) 
-6.99244520984489

>  <mmgbsa_dG>  (51) 
-46.3681708048316

$$$$
No_4659
     RDKit          3D

 26 29  0  0  1  0  0  0  0  0999 V2000
  -34.3221   71.4944  -43.2087 O   0  0  0  0  0  0  0  0  0  0  0  0
  -34.6772   72.6578  -43.0155 C   0  0  0  0  0  0  0  0  0  0  0  0
  -35.6393   73.0993  -42.0072 C   0  0  0  0  0  0  0  0  0  0  0  0
  -36.0649   74.3859  -41.9527 C   0  0  0  0  0  0  0  0  0  0  0  0
  -35.5221   75.3700  -42.8716 C   0  0  0  0  0  0  0  0  0  0  0  0
  -35.9507   76.8179  -42.8931 C   0  0  0  0  0  0  0  0  0  0  0  0
  -35.4717   77.5245  -44.1176 N   0  0  2  0  0  0  0  0  0  0  0  0
  -34.6379   78.7099  -43.7943 C   0  0  0  0  0  0  0  0  0  0  0  0
  -34.0882   79.4444  -45.0223 C   0  0  0  0  0  0  0  0  0  0  0  0
  -35.0000   80.4654  -45.3838 O   0  0  0  0  0  0  0  0  0  0  0  0
  -36.1070   80.0304  -46.1559 C   0  0  0  0  0  0  0  0  0  0  0  0
  -37.0719   79.0976  -45.3930 C   0  0  1  0  0  0  0  0  0  0  0  0
  -38.3970   79.0008  -46.1410 C   0  0  0  0  0  0  0  0  0  0  0  0
  -38.4516   78.5538  -47.4813 C   0  0  0  0  0  0  0  0  0  0  0  0
  -39.6889   78.4286  -48.1401 C   0  0  0  0  0  0  0  0  0  0  0  0
  -40.8837   78.7013  -47.4453 C   0  0  0  0  0  0  0  0  0  0  0  0
  -40.8351   79.1298  -46.1014 C   0  0  0  0  0  0  0  0  0  0  0  0
  -39.5945   79.3302  -45.4713 C   0  0  0  0  0  0  0  0  0  0  0  0
  -42.0288   79.4028  -45.3931 N   0  0  0  0  0  0  0  0  0  0  0  0
  -43.2568   79.0918  -45.8306 C   0  0  0  0  0  0  0  0  0  0  0  0
  -44.2670   79.4026  -45.2076 O   0  0  0  0  0  0  0  0  0  0  0  0
  -43.3670   78.2908  -47.1316 C   0  0  0  0  0  0  0  0  0  0  0  0
  -42.2362   78.6026  -48.1294 C   0  0  0  0  0  0  0  0  0  0  0  0
  -36.5035   77.6729  -45.1848 C   0  0  0  0  0  0  0  0  0  0  0  0
  -34.6407   74.9845  -43.7372 N   0  0  0  0  0  0  0  0  0  0  0  0
  -34.2286   73.6720  -43.7846 N   0  0  0  0  0  0  0  0  0  0  0  0
  1  2  2  0
  2  3  1  0
  2 26  1  0
  3  4  2  0
  4  5  1  0
  5  6  1  0
  5 25  2  0
  7  6  1  1
  7  8  1  0
  7 24  1  0
  8  9  1  0
  9 10  1  0
 10 11  1  0
 11 12  1  0
 12 13  1  6
 12 24  1  0
 13 14  2  0
 13 18  1  0
 14 15  1  0
 15 16  2  0
 16 17  1  0
 16 23  1  0
 17 18  2  0
 17 19  1  0
 19 20  1  0
 20 21  2  0
 20 22  1  0
 22 23  1  0
 25 26  1  0
M  CHG  1   7   1
M  END
>  <cluster>  (52) 
cluster_126007

>  <glide_score>  (52) 
-6.69687175842681

>  <mmgbsa_dG>  (52) 
-46.1472622873334

$$$$
No_3734
     RDKit          3D

 22 24  0  0  1  0  0  0  0  0999 V2000
  -34.3223   78.6321  -42.8075 N   0  0  0  0  0  0  0  0  0  0  0  0
  -34.2370   79.5574  -44.2373 S   0  0  0  0  0  0  0  0  0  0  0  0
  -35.4445   80.3951  -44.3056 O   0  0  0  0  0  0  0  0  0  0  0  0
  -32.8856   80.1343  -44.3178 O   0  0  0  0  0  0  0  0  0  0  0  0
  -34.3739   78.2476  -45.3623 N   0  0  0  0  0  0  0  0  0  0  0  0
  -35.6872   77.6029  -45.5703 C   0  0  0  0  0  0  0  0  0  0  0  0
  -36.0147   77.2191  -47.0303 C   0  0  0  0  0  0  0  0  0  0  0  0
  -35.9730   78.3669  -47.9472 N   0  0  0  0  0  0  0  0  0  0  0  0
  -36.9141   78.1684  -49.0524 C   0  0  0  0  0  0  0  0  0  0  0  0
  -38.3631   78.3106  -48.6991 C   0  0  0  0  0  0  0  0  0  0  0  0
  -39.0281   78.6015  -47.5357 C   0  0  0  0  0  0  0  0  0  0  0  0
  -40.4086   78.6147  -47.9010 C   0  0  0  0  0  0  0  0  0  0  0  0
  -41.5676   78.8548  -47.0485 C   0  0  0  0  0  0  0  0  0  0  0  0
  -41.6178   79.0033  -45.6868 C   0  0  0  0  0  0  0  0  0  0  0  0
  -42.9383   79.2472  -45.2073 C   0  0  0  0  0  0  0  0  0  0  0  0
  -43.8767   79.2800  -46.2034 C   0  0  0  0  0  0  0  0  0  0  0  0
  -43.1549   79.0002  -47.7613 S   0  0  0  0  0  0  0  0  0  0  0  0
  -40.5782   78.3516  -49.1896 N   0  0  0  0  0  0  0  0  0  0  0  0
  -39.3352   78.1680  -49.6603 N   0  0  0  0  0  0  0  0  0  0  0  0
  -34.6355   78.4769  -48.5401 C   0  0  0  0  0  0  0  0  0  0  0  0
  -33.5663   78.9820  -47.5617 C   0  0  0  0  0  0  0  0  0  0  0  0
  -33.3257   78.0505  -46.3714 C   0  0  0  0  0  0  0  0  0  0  0  0
  1  2  1  0
  2  3  2  0
  2  4  2  0
  2  5  1  0
  5  6  1  0
  5 22  1  0
  6  7  1  0
  7  8  1  0
  8  9  1  0
  8 20  1  0
  9 10  1  0
 10 11  2  0
 10 19  1  0
 11 12  1  0
 12 13  1  0
 12 18  2  0
 13 14  2  0
 13 17  1  0
 14 15  1  0
 15 16  2  0
 16 17  1  0
 18 19  1  0
 20 21  1  0
 21 22  1  0
M  END
>  <cluster>  (53) 
cluster_77598

>  <glide_score>  (53) 
-6.71373232853603

>  <mmgbsa_dG>  (53) 
-46.1290231018647

$$$$
No_963
     RDKit          3D

 23 25  0  0  1  0  0  0  0  0999 V2000
  -32.5525   81.0030  -41.9876 N   0  0  0  0  0  0  0  0  0  0  0  0
  -33.3619   80.8694  -43.0355 C   0  0  0  0  0  0  0  0  0  0  0  0
  -34.3221   81.6203  -43.2093 O   0  0  0  0  0  0  0  0  0  0  0  0
  -33.0452   79.7394  -44.0260 C   0  0  0  0  0  0  0  0  0  0  0  0
  -34.2445   78.9957  -44.4482 N   0  0  0  0  0  0  0  0  0  0  0  0
  -34.7249   79.0950  -45.7163 C   0  0  0  0  0  0  0  0  0  0  0  0
  -34.2053   79.8328  -46.5558 O   0  0  0  0  0  0  0  0  0  0  0  0
  -35.9291   78.2289  -46.1587 C   0  0  2  0  0  0  0  0  0  0  0  0
  -36.7871   78.9766  -47.2182 C   0  0  0  0  0  0  0  0  0  0  0  0
  -38.1363   78.3235  -47.5847 C   0  0  2  0  0  0  0  0  0  0  0  0
  -38.6998   78.7558  -48.9464 C   0  0  0  0  0  0  0  0  0  0  0  0
  -40.2176   78.5781  -48.8183 C   0  0  0  0  0  0  0  0  0  0  0  0
  -40.4829   78.6023  -47.3898 N   0  0  0  0  0  0  0  0  0  0  0  0
  -41.7493   78.8387  -46.8214 C   0  0  0  0  0  0  0  0  0  0  0  0
  -41.8672   79.1468  -45.4463 C   0  0  0  0  0  0  0  0  0  0  0  0
  -43.1242   79.4024  -44.8743 C   0  0  0  0  0  0  0  0  0  0  0  0
  -44.2831   79.3328  -45.6579 C   0  0  0  0  0  0  0  0  0  0  0  0
  -44.1837   79.0089  -47.0177 C   0  0  0  0  0  0  0  0  0  0  0  0
  -42.9254   78.7710  -47.6041 C   0  0  0  0  0  0  0  0  0  0  0  0
  -39.2623   78.6989  -46.6159 C   0  0  0  0  0  0  0  0  0  0  0  0
  -34.8904   78.2074  -43.3820 C   0  0  0  0  0  0  0  0  0  0  0  0
  -35.8113   77.1032  -43.8986 C   0  0  0  0  0  0  0  0  0  0  0  0
  -36.7325   77.6862  -44.9612 C   0  0  0  0  0  0  0  0  0  0  0  0
  1  2  1  0
  2  3  2  0
  2  4  1  0
  4  5  1  0
  5  6  1  0
  5 21  1  0
  6  7  2  0
  6  8  1  0
  8  9  1  6
  8 23  1  0
 10  9  1  1
 10 11  1  0
 10 20  1  0
 11 12  1  0
 12 13  1  0
 13 14  1  0
 13 20  1  0
 14 15  2  0
 14 19  1  0
 15 16  1  0
 16 17  2  0
 17 18  1  0
 18 19  2  0
 21 22  1  0
 22 23  1  0
M  END
>  <cluster>  (54) 
cluster_53723

>  <glide_score>  (54) 
-6.51840446110183

>  <mmgbsa_dG>  (54) 
-46.093529857535

$$$$
No_3477
     RDKit          3D

 25 27  0  0  1  0  0  0  0  0999 V2000
  -44.8273   79.1424  -46.6922 C   0  0  0  0  0  0  0  0  0  0  0  0
  -43.7491   78.7122  -47.5111 O   0  0  0  0  0  0  0  0  0  0  0  0
  -42.4688   78.8660  -47.0238 C   0  0  0  0  0  0  0  0  0  0  0  0
  -42.3211   79.2499  -45.7338 N   0  0  0  0  0  0  0  0  0  0  0  0
  -41.0761   79.4011  -45.2494 C   0  0  0  0  0  0  0  0  0  0  0  0
  -39.9242   79.1329  -46.0075 C   0  0  0  0  0  0  0  0  0  0  0  0
  -40.0598   78.7042  -47.3455 C   0  0  0  0  0  0  0  0  0  0  0  0
  -38.8266   78.3721  -48.1852 C   0  0  0  0  0  0  0  0  0  0  0  0
  -37.7025   77.8797  -47.3988 N   0  0  0  0  0  0  0  0  0  0  0  0
  -36.6785   78.6127  -46.9356 C   0  0  0  0  0  0  0  0  0  0  0  0
  -36.5314   79.8029  -47.1988 O   0  0  0  0  0  0  0  0  0  0  0  0
  -35.7011   77.9191  -45.9788 C   0  0  0  0  0  0  0  0  0  0  0  0
  -36.2411   77.9760  -44.5316 C   0  0  0  0  0  0  0  0  0  0  0  0
  -35.3536   77.1906  -43.5475 C   0  0  0  0  0  0  0  0  0  0  0  0
  -35.1789   75.8025  -44.0339 N   0  0  0  0  0  0  0  0  0  0  0  0
  -34.6687   74.8374  -43.0214 C   0  0  1  0  0  0  0  0  0  0  0  0
  -35.8034   74.3285  -42.1143 C   0  0  0  0  0  0  0  0  0  0  0  0
  -35.5207   72.9098  -42.0093 N   0  0  0  0  0  0  0  0  0  0  0  0
  -34.6118   72.5052  -42.8960 C   0  0  0  0  0  0  0  0  0  0  0  0
  -34.3223   71.3487  -43.1883 O   0  0  0  0  0  0  0  0  0  0  0  0
  -34.0725   73.5860  -43.4540 N   0  0  0  0  0  0  0  0  0  0  0  0
  -34.5168   75.7525  -45.3643 C   0  0  0  0  0  0  0  0  0  0  0  0
  -35.3924   76.4650  -46.4007 C   0  0  0  0  0  0  0  0  0  0  0  0
  -41.3700   78.6021  -47.8764 C   0  0  0  0  0  0  0  0  0  0  0  0
  -41.6070   78.2133  -49.3278 C   0  0  0  0  0  0  0  0  0  0  0  0
  1  2  1  0
  2  3  1  0
  3  4  2  0
  3 24  1  0
  4  5  1  0
  5  6  2  0
  6  7  1  0
  7  8  1  0
  7 24  2  0
  8  9  1  0
  9 10  1  0
 10 11  2  0
 10 12  1  0
 12 13  1  0
 12 23  1  0
 13 14  1  0
 14 15  1  0
 16 15  1  6
 15 22  1  0
 16 17  1  0
 16 21  1  0
 17 18  1  0
 18 19  1  0
 19 20  2  0
 19 21  1  0
 22 23  1  0
 24 25  1  0
M  CHG  1  15   1
M  END
>  <cluster>  (55) 
cluster_103721

>  <glide_score>  (55) 
-6.55454817120682

>  <mmgbsa_dG>  (55) 
-46.0853216207979

$$$$
No_4924
     RDKit          3D

 25 27  0  0  1  0  0  0  0  0999 V2000
  -42.0553   77.8028  -49.9173 C   0  0  0  0  0  0  0  0  0  0  0  0
  -41.4387   77.9717  -48.6470 O   0  0  0  0  0  0  0  0  0  0  0  0
  -42.1807   78.4911  -47.6069 C   0  0  0  0  0  0  0  0  0  0  0  0
  -43.5142   78.6128  -47.8093 N   0  0  0  0  0  0  0  0  0  0  0  0
  -44.2993   79.0506  -46.8078 C   0  0  0  0  0  0  0  0  0  0  0  0
  -43.7973   79.4026  -45.5488 C   0  0  0  0  0  0  0  0  0  0  0  0
  -42.4155   79.2887  -45.3333 C   0  0  0  0  0  0  0  0  0  0  0  0
  -41.5786   78.8119  -46.3597 C   0  0  0  0  0  0  0  0  0  0  0  0
  -40.2135   78.6026  -46.0091 N   0  0  0  0  0  0  0  0  0  0  0  0
  -39.1098   78.7320  -46.7599 C   0  0  0  0  0  0  0  0  0  0  0  0
  -39.0967   79.0026  -47.9582 O   0  0  0  0  0  0  0  0  0  0  0  0
  -37.9956   78.6044  -46.0260 N   0  0  0  0  0  0  0  0  0  0  0  0
  -36.6486   78.9368  -46.4982 C   0  0  0  0  0  0  0  0  0  0  0  0
  -35.5694   77.9267  -46.0509 C   0  0  2  0  0  0  0  0  0  0  0  0
  -35.7786   76.5302  -46.6459 C   0  0  0  0  0  0  0  0  0  0  0  0
  -34.7225   75.5384  -46.1410 C   0  0  0  0  0  0  0  0  0  0  0  0
  -34.7222   75.4029  -44.6705 N   0  0  0  0  0  0  0  0  0  0  0  0
  -34.3221   74.2212  -44.1257 C   0  0  0  0  0  0  0  0  0  0  0  0
  -33.9012   73.2836  -44.8067 O   0  0  0  0  0  0  0  0  0  0  0  0
  -34.4232   74.0918  -42.6398 C   0  0  0  0  0  0  0  0  0  0  0  0
  -35.7050   73.5033  -42.0941 C   0  0  0  0  0  0  0  0  0  0  0  0
  -34.4321   72.7016  -42.0420 C   0  0  0  0  0  0  0  0  0  0  0  0
  -35.3497   76.4751  -43.8582 C   0  0  0  0  0  0  0  0  0  0  0  0
  -35.3919   77.8554  -44.5298 C   0  0  0  0  0  0  0  0  0  0  0  0
  -35.3109   78.8833  -43.8563 O   0  0  0  0  0  0  0  0  0  0  0  0
  1  2  1  0
  2  3  1  0
  3  4  2  0
  3  8  1  0
  4  5  1  0
  5  6  2  0
  6  7  1  0
  7  8  2  0
  8  9  1  0
  9 10  1  0
 10 11  2  0
 10 12  1  0
 12 13  1  0
 14 13  1  1
 14 15  1  0
 14 24  1  0
 15 16  1  0
 16 17  1  0
 17 18  1  0
 17 23  1  0
 18 19  2  0
 18 20  1  0
 20 21  1  0
 20 22  1  0
 21 22  1  0
 23 24  1  0
 24 25  2  0
M  END
>  <cluster>  (56) 
cluster_57684

>  <glide_score>  (56) 
-6.57221958930985

>  <mmgbsa_dG>  (56) 
-46.0713141931628

$$$$
No_3259
     RDKit          3D

 23 25  0  0  1  0  0  0  0  0999 V2000
  -33.7707   76.3793  -46.0079 O   0  0  0  0  0  0  0  0  0  0  0  0
  -34.7841   77.1754  -45.2954 S   0  0  0  0  0  0  0  0  0  0  0  0
  -34.4432   78.4641  -44.6736 O   0  0  0  0  0  0  0  0  0  0  0  0
  -35.5247   76.2014  -44.0900 N   0  0  0  0  0  0  0  0  0  0  0  0
  -34.7173   75.4523  -43.1370 C   0  0  0  0  0  0  0  0  0  0  0  0
  -35.3779   74.3330  -42.3687 C   0  0  0  0  0  0  0  0  0  0  0  0
  -34.3586   74.0185  -43.4417 C   0  0  0  0  0  0  0  0  0  0  0  0
  -36.1779   77.3865  -46.2993 N   0  0  0  0  0  0  0  0  0  0  0  0
  -37.2658   78.2053  -45.7145 C   0  0  0  0  0  0  0  0  0  0  0  0
  -38.4395   78.6320  -46.5963 C   0  0  0  0  0  0  0  0  0  0  0  0
  -38.2383   79.0025  -47.7522 O   0  0  0  0  0  0  0  0  0  0  0  0
  -39.6438   78.6031  -46.0079 N   0  0  0  0  0  0  0  0  0  0  0  0
  -40.9171   78.7632  -46.6012 C   0  0  0  0  0  0  0  0  0  0  0  0
  -41.1711   78.6029  -47.9830 C   0  0  0  0  0  0  0  0  0  0  0  0
  -42.4993   78.6922  -48.4335 C   0  0  0  0  0  0  0  0  0  0  0  0
  -43.5456   78.8821  -47.6081 N   0  0  0  0  0  0  0  0  0  0  0  0
  -43.3001   79.0257  -46.2922 C   0  0  0  0  0  0  0  0  0  0  0  0
  -44.5068   79.1615  -45.4015 C   0  0  0  0  0  0  0  0  0  0  0  0
  -42.0065   79.0003  -45.7432 C   0  0  0  0  0  0  0  0  0  0  0  0
  -36.4756   76.4831  -47.4454 C   0  0  0  0  0  0  0  0  0  0  0  0
  -35.6262   76.5670  -48.7227 C   0  0  0  0  0  0  0  0  0  0  0  0
  -35.8878   75.0739  -48.9438 C   0  0  0  0  0  0  0  0  0  0  0  0
  -36.1803   74.9716  -47.4450 C   0  0  0  0  0  0  0  0  0  0  0  0
  1  2  2  0
  2  3  2  0
  2  4  1  0
  2  8  1  0
  4  5  1  0
  5  6  1  0
  5  7  1  0
  6  7  1  0
  8  9  1  0
  8 20  1  0
  9 10  1  0
 10 11  2  0
 10 12  1  0
 12 13  1  0
 13 14  2  0
 13 19  1  0
 14 15  1  0
 15 16  2  0
 16 17  1  0
 17 18  1  0
 17 19  2  0
 20 21  1  0
 20 23  1  0
 21 22  1  0
 22 23  1  0
M  END
>  <cluster>  (57) 
cluster_87675

>  <glide_score>  (57) 
-6.57450030795538

>  <mmgbsa_dG>  (57) 
-46.0210494351268

$$$$
No_3495
     RDKit          3D

 25 27  0  0  1  0  0  0  0  0999 V2000
  -36.0430   73.5004  -50.0511 C   0  0  0  0  0  0  0  0  0  0  0  0
  -35.7072   74.6536  -49.2157 N   0  0  0  0  0  0  0  0  0  0  0  0
  -36.1663   75.9597  -49.7036 C   0  0  0  0  0  0  0  0  0  0  0  0
  -35.4657   77.1474  -49.0210 C   0  0  0  0  0  0  0  0  0  0  0  0
  -35.5239   76.9423  -47.5764 N   0  0  0  0  0  0  0  0  0  0  0  0
  -35.1434   78.1217  -46.7915 C   0  0  0  0  0  0  0  0  0  0  0  0
  -36.2767   78.5535  -45.8143 C   0  0  0  0  0  0  0  0  0  0  0  0
  -36.4724   77.4634  -44.7327 C   0  0  0  0  0  0  0  0  0  0  0  0
  -35.8482   79.8615  -45.1179 C   0  0  0  0  0  0  0  0  0  0  0  0
  -37.5893   78.8404  -46.5890 C   0  0  0  0  0  0  0  0  0  0  0  0
  -37.5311   79.4025  -47.6807 O   0  0  0  0  0  0  0  0  0  0  0  0
  -38.7475   78.4946  -46.0016 N   0  0  0  0  0  0  0  0  0  0  0  0
  -40.0677   78.7118  -46.4646 C   0  0  0  0  0  0  0  0  0  0  0  0
  -41.1111   79.0026  -45.6280 C   0  0  0  0  0  0  0  0  0  0  0  0
  -42.2675   79.1343  -46.3840 N   0  0  0  0  0  0  0  0  0  0  0  0
  -43.5737   79.4717  -45.8527 C   0  0  0  0  0  0  0  0  0  0  0  0
  -41.9557   78.9293  -47.7240 C   0  0  0  0  0  0  0  0  0  0  0  0
  -42.7223   78.9909  -48.8965 C   0  0  0  0  0  0  0  0  0  0  0  0
  -42.0888   78.6988  -50.1159 C   0  0  0  0  0  0  0  0  0  0  0  0
  -40.7213   78.3639  -50.0926 C   0  0  0  0  0  0  0  0  0  0  0  0
  -39.9687   78.3124  -48.9706 N   0  0  0  0  0  0  0  0  0  0  0  0
  -40.5653   78.6121  -47.8076 C   0  0  0  0  0  0  0  0  0  0  0  0
  -34.7612   75.7405  -47.1899 C   0  0  0  0  0  0  0  0  0  0  0  0
  -35.0713   74.4975  -48.0332 C   0  0  0  0  0  0  0  0  0  0  0  0
  -34.7093   73.4022  -47.6101 O   0  0  0  0  0  0  0  0  0  0  0  0
  1  2  1  0
  2  3  1  0
  2 24  1  0
  3  4  1  0
  4  5  1  0
  5  6  1  0
  5 23  1  0
  6  7  1  0
  7  8  1  0
  7  9  1  0
  7 10  1  0
 10 11  2  0
 10 12  1  0
 12 13  1  0
 13 14  2  0
 13 22  1  0
 14 15  1  0
 15 16  1  0
 15 17  1  0
 17 18  1  0
 17 22  2  0
 18 19  2  0
 19 20  1  0
 20 21  2  0
 21 22  1  0
 23 24  1  0
 24 25  2  0
M  END
>  <cluster>  (58) 
cluster_77359

>  <glide_score>  (58) 
-7.48196453315508

>  <mmgbsa_dG>  (58) 
-46.0141028894432

$$$$
No_572
     RDKit          3D

 23 25  0  0  1  0  0  0  0  0999 V2000
  -43.7388   79.1003  -44.5247 C   0  0  0  0  0  0  0  0  0  0  0  0
  -43.8159   79.5199  -45.9963 C   0  0  0  0  0  0  0  0  0  0  0  0
  -42.6216   79.1187  -46.8012 C   0  0  0  0  0  0  0  0  0  0  0  0
  -42.6805   78.8749  -48.1129 N   0  0  0  0  0  0  0  0  0  0  0  0
  -41.4279   78.6025  -48.6687 C   0  0  0  0  0  0  0  0  0  0  0  0
  -40.4057   78.6026  -47.7526 C   0  0  0  0  0  0  0  0  0  0  0  0
  -39.0131   78.2868  -47.9743 C   0  0  0  0  0  0  0  0  0  0  0  0
  -38.0880   78.6182  -48.9308 C   0  0  0  0  0  0  0  0  0  0  0  0
  -36.8907   77.9127  -48.6079 C   0  0  0  0  0  0  0  0  0  0  0  0
  -37.2074   77.1819  -47.4983 C   0  0  0  0  0  0  0  0  0  0  0  0
  -36.4335   76.2482  -46.8115 N   0  0  0  0  0  0  0  0  0  0  0  0
  -34.9783   76.2318  -46.8999 C   0  0  0  0  0  0  0  0  0  0  0  0
  -34.3225   76.3974  -45.5173 C   0  0  0  0  0  0  0  0  0  0  0  0
  -34.8051   75.3767  -44.5539 N   0  0  2  0  0  0  0  0  0  0  0  0
  -34.9095   75.8266  -43.1500 C   0  0  0  0  0  0  0  0  0  0  0  0
  -35.6458   74.7850  -42.2927 C   0  0  0  0  0  0  0  0  0  0  0  0
  -35.1779   73.4149  -42.5095 N   0  0  0  0  0  0  0  0  0  0  0  0
  -35.5511   72.4486  -41.4792 C   0  0  0  0  0  0  0  0  0  0  0  0
  -34.5645   73.0027  -43.6378 C   0  0  0  0  0  0  0  0  0  0  0  0
  -34.3219   71.8154  -43.8579 O   0  0  0  0  0  0  0  0  0  0  0  0
  -34.2070   74.0263  -44.7300 C   0  0  0  0  0  0  0  0  0  0  0  0
  -38.4766   77.4027  -47.0928 O   0  0  0  0  0  0  0  0  0  0  0  0
  -40.9837   79.0026  -46.1547 S   0  0  0  0  0  0  0  0  0  0  0  0
  1  2  1  0
  2  3  1  0
  3  4  2  0
  3 23  1  0
  4  5  1  0
  5  6  2  0
  6  7  1  0
  6 23  1  0
  7  8  2  0
  7 22  1  0
  8  9  1  0
  9 10  2  0
 10 11  1  0
 10 22  1  0
 11 12  1  0
 12 13  1  0
 14 13  1  6
 14 15  1  0
 14 21  1  0
 15 16  1  0
 16 17  1  0
 17 18  1  0
 17 19  1  0
 19 20  2  0
 19 21  1  0
M  CHG  1  14   1
M  END
>  <cluster>  (59) 
cluster_58608

>  <glide_score>  (59) 
-7.50386339876212

>  <mmgbsa_dG>  (59) 
-45.9911377767567

$$$$
No_3513
     RDKit          3D

 23 26  0  0  1  0  0  0  0  0999 V2000
  -41.9773   79.0320  -45.3135 C   0  0  0  0  0  0  0  0  0  0  0  0
  -41.7878   78.8558  -46.7868 C   0  0  0  0  0  0  0  0  0  0  0  0
  -42.8298   78.8528  -47.6829 C   0  0  0  0  0  0  0  0  0  0  0  0
  -42.2954   78.6003  -49.3247 S   0  0  0  0  0  0  0  0  0  0  0  0
  -40.6432   78.5182  -48.7975 C   0  0  0  0  0  0  0  0  0  0  0  0
  -40.5283   78.6656  -47.4431 C   0  0  0  0  0  0  0  0  0  0  0  0
  -39.2011   78.6031  -46.8304 C   0  0  0  0  0  0  0  0  0  0  0  0
  -38.8474   79.0037  -45.6079 N   0  0  0  0  0  0  0  0  0  0  0  0
  -37.4923   78.7700  -45.5238 N   0  0  0  0  0  0  0  0  0  0  0  0
  -37.1298   78.2753  -46.7110 C   0  0  0  0  0  0  0  0  0  0  0  0
  -35.4799   77.8446  -47.1789 S   0  0  0  0  0  0  0  0  0  0  0  0
  -34.7233   77.2830  -45.6117 C   0  0  1  0  0  0  0  0  0  0  0  0
  -34.5539   78.3533  -44.5184 C   0  0  0  0  0  0  0  0  0  0  0  0
  -35.0954   77.6949  -43.2398 C   0  0  0  0  0  0  0  0  0  0  0  0
  -35.1214   76.2440  -43.5068 N   0  0  1  0  0  0  0  0  0  0  0  0
  -35.9132   75.4190  -42.5615 C   0  0  0  0  0  0  0  0  0  0  0  0
  -35.2731   74.0370  -42.3557 C   0  0  0  0  0  0  0  0  0  0  0  0
  -35.5221   73.4046  -41.2078 N   0  0  0  0  0  0  0  0  0  0  0  0
  -34.5402   73.5511  -43.2148 O   0  0  0  0  0  0  0  0  0  0  0  0
  -35.4492   76.1158  -44.9380 C   0  0  0  0  0  0  0  0  0  0  0  0
  -38.1638   78.1695  -47.5679 N   0  0  0  0  0  0  0  0  0  0  0  0
  -38.2629   77.6660  -48.9394 C   0  0  0  0  0  0  0  0  0  0  0  0
  -39.4605   78.3117  -49.6960 C   0  0  0  0  0  0  0  0  0  0  0  0
  1  2  1  0
  2  3  2  0
  2  6  1  0
  3  4  1  0
  4  5  1  0
  5  6  2  0
  5 23  1  0
  6  7  1  0
  7  8  2  0
  7 21  1  0
  8  9  1  0
  9 10  2  0
 10 11  1  0
 10 21  1  0
 12 11  1  6
 12 13  1  0
 12 20  1  0
 13 14  1  0
 14 15  1  0
 15 16  1  1
 15 20  1  0
 16 17  1  0
 17 18  1  0
 17 19  2  0
 21 22  1  0
 22 23  1  0
M  CHG  1  15   1
M  END
>  <cluster>  (60) 
cluster_56273

>  <glide_score>  (60) 
-6.51546431849414

>  <mmgbsa_dG>  (60) 
-45.931835987918

$$$$
No_921
     RDKit          3D

 24 26  0  0  1  0  0  0  0  0999 V2000
  -33.7993   72.5556  -42.9489 C   0  0  0  0  0  0  0  0  0  0  0  0
  -33.9208   73.6123  -43.8923 O   0  0  0  0  0  0  0  0  0  0  0  0
  -34.7222   74.6909  -43.5838 C   0  0  0  0  0  0  0  0  0  0  0  0
  -35.5120   74.7008  -42.4074 C   0  0  0  0  0  0  0  0  0  0  0  0
  -36.3659   75.7813  -42.1561 C   0  0  0  0  0  0  0  0  0  0  0  0
  -36.4901   76.8259  -42.9910 N   0  0  0  0  0  0  0  0  0  0  0  0
  -35.7733   76.8215  -44.1348 C   0  0  0  0  0  0  0  0  0  0  0  0
  -36.0803   77.9902  -45.0665 C   0  0  0  0  0  0  0  0  0  0  0  0
  -37.5222   78.2084  -45.2078 N   0  0  0  0  0  0  0  0  0  0  0  0
  -38.1496   78.5762  -46.3333 C   0  0  0  0  0  0  0  0  0  0  0  0
  -37.5644   78.8554  -47.3786 O   0  0  0  0  0  0  0  0  0  0  0  0
  -39.4893   78.6070  -46.2088 N   0  0  0  0  0  0  0  0  0  0  0  0
  -40.4142   78.7184  -47.2867 C   0  0  0  0  0  0  0  0  0  0  0  0
  -40.1110   78.5786  -48.5816 N   0  0  0  0  0  0  0  0  0  0  0  0
  -41.2366   78.7435  -49.3451 C   0  0  0  0  0  0  0  0  0  0  0  0
  -41.2162   78.6714  -50.8348 C   0  0  0  0  0  0  0  0  0  0  0  0
  -42.2557   79.0025  -48.4585 C   0  0  0  0  0  0  0  0  0  0  0  0
  -41.7257   78.9898  -47.1855 N   0  0  0  0  0  0  0  0  0  0  0  0
  -42.4005   79.2755  -45.9065 C   0  0  0  0  0  0  0  0  0  0  0  0
  -43.8971   79.5356  -45.9561 C   0  0  0  0  0  0  0  0  0  0  0  0
  -43.3683   78.2025  -45.4735 C   0  0  0  0  0  0  0  0  0  0  0  0
  -34.8536   75.7990  -44.4824 C   0  0  0  0  0  0  0  0  0  0  0  0
  -34.1947   75.9419  -45.6891 O   0  0  0  0  0  0  0  0  0  0  0  0
  -33.6663   74.8066  -46.3529 C   0  0  0  0  0  0  0  0  0  0  0  0
  1  2  1  0
  2  3  1  0
  3  4  2  0
  3 22  1  0
  4  5  1  0
  5  6  2  0
  6  7  1  0
  7  8  1  0
  7 22  2  0
  8  9  1  0
  9 10  1  0
 10 11  2  0
 10 12  1  0
 12 13  1  0
 13 14  2  0
 13 18  1  0
 14 15  1  0
 15 16  1  0
 15 17  2  0
 17 18  1  0
 18 19  1  0
 19 20  1  0
 19 21  1  0
 20 21  1  0
 22 23  1  0
 23 24  1  0
M  CHG  1  14   1
M  END
>  <cluster>  (61) 
cluster_16749

>  <glide_score>  (61) 
-6.70727324483065

>  <mmgbsa_dG>  (61) 
-45.8295290234455

$$$$
No_1415
     RDKit          3D

 21 23  0  0  1  0  0  0  0  0999 V2000
  -34.4019   76.1590  -45.5460 C   0  0  0  0  0  0  0  0  0  0  0  0
  -35.5222   76.2029  -44.5702 N   0  0  2  0  0  0  0  0  0  0  0  0
  -36.4978   77.2911  -44.8416 C   0  0  0  0  0  0  0  0  0  0  0  0
  -35.9247   78.7321  -44.8075 C   0  0  0  0  0  0  0  0  0  0  0  0
  -34.8764   78.9556  -44.2067 O   0  0  0  0  0  0  0  0  0  0  0  0
  -36.6818   79.6669  -45.4398 N   0  0  0  0  0  0  0  0  0  0  0  0
  -37.8645   79.3789  -46.0118 C   0  0  0  0  0  0  0  0  0  0  0  0
  -39.0730   79.4045  -45.4682 N   0  0  0  0  0  0  0  0  0  0  0  0
  -39.8178   79.0059  -46.5431 C   0  0  0  0  0  0  0  0  0  0  0  0
  -41.2934   78.9462  -46.4832 C   0  0  0  0  0  0  0  0  0  0  0  0
  -41.9951   79.2420  -45.2943 C   0  0  0  0  0  0  0  0  0  0  0  0
  -43.4010   79.1766  -45.2730 C   0  0  0  0  0  0  0  0  0  0  0  0
  -44.0690   78.8368  -46.4610 C   0  0  0  0  0  0  0  0  0  0  0  0
  -43.4235   78.5444  -47.6070 N   0  0  0  0  0  0  0  0  0  0  0  0
  -42.0755   78.6029  -47.6099 C   0  0  0  0  0  0  0  0  0  0  0  0
  -39.1530   78.7392  -47.6669 N   0  0  0  0  0  0  0  0  0  0  0  0
  -37.8804   79.0024  -47.2934 N   0  0  0  0  0  0  0  0  0  0  0  0
  -35.1387   76.0290  -43.1422 C   0  0  0  0  0  0  0  0  0  0  0  0
  -36.3165   75.6278  -42.2216 C   0  0  0  0  0  0  0  0  0  0  0  0
  -35.7816   74.1970  -42.1607 C   0  0  0  0  0  0  0  0  0  0  0  0
  -34.4817   74.6720  -42.8069 C   0  0  0  0  0  0  0  0  0  0  0  0
  2  1  1  6
  2  3  1  0
  2 18  1  0
  3  4  1  0
  4  5  2  0
  4  6  1  0
  6  7  1  0
  7  8  2  0
  7 17  1  0
  8  9  1  0
  9 16  2  0
  9 10  1  0
 10 11  2  0
 10 15  1  0
 11 12  1  0
 12 13  2  0
 13 14  1  0
 14 15  2  0
 16 17  1  0
 18 19  1  0
 18 21  1  0
 19 20  1  0
 20 21  1  0
M  CHG  2   2   1   6  -1
M  END
>  <cluster>  (62) 
cluster_17243

>  <glide_score>  (62) 
-6.71851793758617

>  <mmgbsa_dG>  (62) 
-45.7282869154005

$$$$
No_1368
     RDKit          3D

 24 27  0  0  1  0  0  0  0  0999 V2000
  -38.7387   79.0000  -48.1931 O   0  0  0  0  0  0  0  0  0  0  0  0
  -39.3472   78.7351  -47.1560 C   0  0  0  0  0  0  0  0  0  0  0  0
  -38.7222   78.4256  -46.0077 N   0  0  0  0  0  0  0  0  0  0  0  0
  -37.3836   78.2767  -45.8669 C   0  0  0  0  0  0  0  0  0  0  0  0
  -36.6631   79.0854  -45.0401 O   0  0  0  0  0  0  0  0  0  0  0  0
  -35.4166   78.5536  -45.0805 C   0  0  0  0  0  0  0  0  0  0  0  0
  -34.3799   79.0992  -44.3392 N   0  0  0  0  0  0  0  0  0  0  0  0
  -35.3329   77.4483  -45.8746 C   0  0  0  0  0  0  0  0  0  0  0  0
  -36.6436   77.2488  -46.4038 C   0  0  0  0  0  0  0  0  0  0  0  0
  -37.1180   76.1060  -47.2737 C   0  0  0  0  0  0  0  0  0  0  0  0
  -36.7375   76.1517  -48.6875 N   0  0  0  0  0  0  0  0  0  0  0  0
  -37.4303   75.1196  -49.4568 C   0  0  0  0  0  0  0  0  0  0  0  0
  -36.9129   73.6957  -49.1577 C   0  0  0  0  0  0  0  0  0  0  0  0
  -35.5055   73.6332  -49.3796 O   0  0  0  0  0  0  0  0  0  0  0  0
  -34.7701   74.5962  -48.6276 C   0  0  0  0  0  0  0  0  0  0  0  0
  -35.3001   76.0149  -48.9265 C   0  0  0  0  0  0  0  0  0  0  0  0
  -40.8293   78.7647  -47.1487 C   0  0  0  0  0  0  0  0  0  0  0  0
  -41.6291   79.0028  -45.6078 S   0  0  0  0  0  0  0  0  0  0  0  0
  -43.1915   79.0037  -46.3655 C   0  0  0  0  0  0  0  0  0  0  0  0
  -43.0853   78.8596  -47.7218 C   0  0  0  0  0  0  0  0  0  0  0  0
  -41.7397   78.7288  -48.1839 C   0  0  0  0  0  0  0  0  0  0  0  0
  -41.3909   78.6408  -49.6456 C   0  0  0  0  0  0  0  0  0  0  0  0
  -40.6550   77.4615  -50.2443 C   0  0  0  0  0  0  0  0  0  0  0  0
  -42.1113   77.6847  -50.5659 C   0  0  0  0  0  0  0  0  0  0  0  0
  1  2  2  0
  2  3  1  0
  2 17  1  0
  3  4  1  0
  4  5  1  0
  4  9  2  0
  5  6  1  0
  6  7  1  0
  6  8  2  0
  8  9  1  0
  9 10  1  0
 10 11  1  0
 11 12  1  0
 11 16  1  0
 12 13  1  0
 13 14  1  0
 14 15  1  0
 15 16  1  0
 17 18  1  0
 17 21  2  0
 18 19  1  0
 19 20  2  0
 20 21  1  0
 21 22  1  0
 22 23  1  0
 22 24  1  0
 23 24  1  0
M  END
>  <cluster>  (63) 
cluster_64680

>  <glide_score>  (63) 
-6.61450431459797

>  <mmgbsa_dG>  (63) 
-45.6101034572348

$$$$
No_1594
     RDKit          3D

 25 27  0  0  1  0  0  0  0  0999 V2000
  -49.5587   83.9380  -51.9990 C   0  0  0  0  0  0  0  0  0  0  0  0
  -48.7222   82.7198  -52.0086 N   0  0  0  0  0  0  0  0  0  0  0  0
  -47.3475   82.9598  -51.5082 C   0  0  0  0  0  0  0  0  0  0  0  0
  -46.4802   81.6886  -51.5452 C   0  0  0  0  0  0  0  0  0  0  0  0
  -46.5615   81.0026  -52.8450 N   0  0  0  0  0  0  0  0  0  0  0  0
  -45.5182   80.6022  -53.6205 C   0  0  0  0  0  0  0  0  0  0  0  0
  -45.6858   79.8913  -54.6133 O   0  0  0  0  0  0  0  0  0  0  0  0
  -44.0737   81.0436  -53.3101 C   0  0  0  0  0  0  0  0  0  0  0  0
  -43.5519   80.6383  -52.0077 N   0  0  0  0  0  0  0  0  0  0  0  0
  -43.1222   79.4236  -51.6525 C   0  0  0  0  0  0  0  0  0  0  0  0
  -43.1209   78.4460  -52.3990 O   0  0  0  0  0  0  0  0  0  0  0  0
  -42.7221   79.4005  -50.3730 N   0  0  0  0  0  0  0  0  0  0  0  0
  -42.2722   78.2058  -49.6689 C   0  0  0  0  0  0  0  0  0  0  0  0
  -41.3324   78.5148  -48.5190 C   0  0  0  0  0  0  0  0  0  0  0  0
  -39.9597   78.6762  -48.7966 C   0  0  0  0  0  0  0  0  0  0  0  0
  -39.0268   78.8990  -47.8496 N   0  0  0  0  0  0  0  0  0  0  0  0
  -39.4348   78.9446  -46.5684 C   0  0  0  0  0  0  0  0  0  0  0  0
  -38.4475   79.1096  -45.6075 N   0  0  0  0  0  0  0  0  0  0  0  0
  -40.7792   78.8217  -46.1840 C   0  0  0  0  0  0  0  0  0  0  0  0
  -41.7636   78.6026  -47.1697 C   0  0  0  0  0  0  0  0  0  0  0  0
  -43.1911   78.4354  -46.7250 C   0  0  0  0  0  0  0  0  0  0  0  0
  -43.7664   79.4063  -45.7171 C   0  0  0  0  0  0  0  0  0  0  0  0
  -44.3047   79.3763  -47.1238 C   0  0  0  0  0  0  0  0  0  0  0  0
  -47.9528   80.7150  -53.2230 C   0  0  0  0  0  0  0  0  0  0  0  0
  -48.7472   82.0238  -53.3120 C   0  0  0  0  0  0  0  0  0  0  0  0
  1  2  1  0
  2  3  1  0
  2 25  1  0
  3  4  1  0
  4  5  1  0
  5  6  1  0
  5 24  1  0
  6  7  2  0
  6  8  1  0
  8  9  1  0
  9 10  1  0
 10 11  2  0
 10 12  1  0
 12 13  1  0
 13 14  1  0
 14 15  2  0
 14 20  1  0
 15 16  1  0
 16 17  2  0
 17 18  1  0
 17 19  1  0
 19 20  2  0
 20 21  1  0
 21 22  1  0
 21 23  1  0
 22 23  1  0
 24 25  1  0
M  CHG  1   2   1
M  END
>  <cluster>  (64) 
cluster_107114

>  <glide_score>  (64) 
-6.69755604434679

>  <mmgbsa_dG>  (64) 
-45.522620256168

$$$$
No_1735
     RDKit          3D

 24 27  0  0  1  0  0  0  0  0999 V2000
  -47.6275   80.6027  -53.9762 O   0  0  0  0  0  0  0  0  0  0  0  0
  -46.7306   81.1873  -53.3697 C   0  0  0  0  0  0  0  0  0  0  0  0
  -45.3035   81.1852  -53.9341 C   0  0  0  0  0  0  0  0  0  0  0  0
  -44.3725   80.2515  -53.3031 N   0  0  0  0  0  0  0  0  0  0  0  0
  -43.0951   80.0907  -54.0210 C   0  0  0  0  0  0  0  0  0  0  0  0
  -42.2110   79.5101  -52.9549 C   0  0  0  0  0  0  0  0  0  0  0  0
  -41.0145   78.7788  -52.9933 C   0  0  0  0  0  0  0  0  0  0  0  0
  -40.4520   78.3722  -51.8264 N   0  0  0  0  0  0  0  0  0  0  0  0
  -41.0683   78.7111  -50.6818 C   0  0  0  0  0  0  0  0  0  0  0  0
  -40.4183   78.2996  -49.5372 N   0  0  0  0  0  0  0  0  0  0  0  0
  -40.6209   78.6024  -48.1854 C   0  0  0  0  0  0  0  0  0  0  0  0
  -39.5930   78.6719  -47.2834 C   0  0  0  0  0  0  0  0  0  0  0  0
  -40.1641   78.9642  -46.0077 C   0  0  0  0  0  0  0  0  0  0  0  0
  -41.5191   79.0027  -46.1807 C   0  0  0  0  0  0  0  0  0  0  0  0
  -41.8066   78.8148  -47.4980 N   0  0  0  0  0  0  0  0  0  0  0  0
  -43.2126   78.8623  -47.8160 C   0  0  0  0  0  0  0  0  0  0  0  0
  -43.8869   78.9076  -46.4256 C   0  0  0  0  0  0  0  0  0  0  0  0
  -42.7629   79.1848  -45.3998 C   0  0  0  0  0  0  0  0  0  0  0  0
  -42.2026   79.4026  -50.5610 N   0  0  0  0  0  0  0  0  0  0  0  0
  -42.7467   79.7916  -51.7227 C   0  0  0  0  0  0  0  0  0  0  0  0
  -44.0223   80.5506  -51.9044 C   0  0  0  0  0  0  0  0  0  0  0  0
  -47.0232   81.9310  -52.0597 C   0  0  0  0  0  0  0  0  0  0  0  0
  -47.5437   81.0057  -50.9442 C   0  0  0  0  0  0  0  0  0  0  0  0
  -48.3222   81.7171  -50.0078 O   0  0  0  0  0  0  0  0  0  0  0  0
  1  2  2  0
  2  3  1  0
  2 22  1  0
  3  4  1  0
  4  5  1  0
  4 21  1  0
  5  6  1  0
  6  7  2  0
  6 20  1  0
  7  8  1  0
  8  9  2  0
  9 10  1  0
  9 19  1  0
 10 11  1  0
 11 12  2  0
 11 15  1  0
 12 13  1  0
 13 14  2  0
 14 15  1  0
 14 18  1  0
 15 16  1  0
 16 17  1  0
 17 18  1  0
 19 20  2  0
 20 21  1  0
 22 23  1  0
 23 24  1  0
M  END
>  <cluster>  (65) 
cluster_65047

>  <glide_score>  (65) 
-7.11771336968194

>  <mmgbsa_dG>  (65) 
-45.5170910478773

$$$$
No_2594
     RDKit          3D

 22 23  0  0  1  0  0  0  0  0999 V2000
  -44.6551   79.0140  -46.7493 C   0  0  0  0  0  0  0  0  0  0  0  0
  -43.1512   79.0024  -46.5819 C   0  0  0  0  0  0  0  0  0  0  0  0
  -42.3189   78.6086  -47.6490 C   0  0  0  0  0  0  0  0  0  0  0  0
  -40.9180   78.6042  -47.4925 C   0  0  0  0  0  0  0  0  0  0  0  0
  -40.3289   78.9863  -46.2610 C   0  0  0  0  0  0  0  0  0  0  0  0
  -38.8343   79.0016  -46.0567 C   0  0  0  0  0  0  0  0  0  0  0  0
  -38.3601   79.7769  -45.2236 O   0  0  0  0  0  0  0  0  0  0  0  0
  -38.1875   78.0521  -46.7749 N   0  0  0  0  0  0  0  0  0  0  0  0
  -36.6099   77.7287  -46.6085 S   0  0  0  0  0  0  0  0  0  0  0  0
  -35.7669   78.9336  -46.6516 O   0  0  0  0  0  0  0  0  0  0  0  0
  -36.1935   76.5960  -47.4495 O   0  0  0  0  0  0  0  0  0  0  0  0
  -36.5044   77.0923  -44.8851 C   0  0  0  0  0  0  0  0  0  0  0  0
  -35.0530   76.7880  -44.4923 C   0  0  0  0  0  0  0  0  0  0  0  0
  -34.9397   76.1883  -43.0823 C   0  0  0  0  0  0  0  0  0  0  0  0
  -35.2874   74.7489  -43.0569 N   0  0  1  0  0  0  0  0  0  0  0  0
  -34.1635   73.8396  -43.3598 C   0  0  0  0  0  0  0  0  0  0  0  0
  -34.6652   72.5259  -42.8040 C   0  0  0  0  0  0  0  0  0  0  0  0
  -34.3177   71.4173  -43.2091 O   0  0  0  0  0  0  0  0  0  0  0  0
  -35.6754   72.7640  -41.7052 C   0  0  0  0  0  0  0  0  0  0  0  0
  -35.9457   74.2707  -41.8139 C   0  0  0  0  0  0  0  0  0  0  0  0
  -41.1760   79.3925  -45.2069 C   0  0  0  0  0  0  0  0  0  0  0  0
  -42.5746   79.3985  -45.3607 C   0  0  0  0  0  0  0  0  0  0  0  0
  1  2  1  0
  2  3  2  0
  2 22  1  0
  3  4  1  0
  4  5  2  0
  5  6  1  0
  5 21  1  0
  6  7  2  0
  6  8  1  0
  8  9  1  0
  9 10  2  0
  9 11  2  0
  9 12  1  0
 12 13  1  0
 13 14  1  0
 15 14  1  1
 15 16  1  0
 15 20  1  0
 16 17  1  0
 17 18  2  0
 17 19  1  0
 19 20  1  0
 21 22  2  0
M  CHG  2   8  -1  15   1
M  END
>  <cluster>  (66) 
cluster_102838

>  <glide_score>  (66) 
-6.62874171353655

>  <mmgbsa_dG>  (66) 
-45.4877652148498

$$$$
No_1156
     RDKit          3D

 25 28  0  0  1  0  0  0  0  0999 V2000
  -33.0591   79.0809  -46.7651 C   0  0  0  0  0  0  0  0  0  0  0  0
  -34.2750   78.6260  -46.0372 C   0  0  0  0  0  0  0  0  0  0  0  0
  -34.3430   78.1370  -44.8057 N   0  0  0  0  0  0  0  0  0  0  0  0
  -35.6849   77.8267  -44.6154 C   0  0  0  0  0  0  0  0  0  0  0  0
  -36.1704   77.2298  -43.3257 C   0  0  0  0  0  0  0  0  0  0  0  0
  -35.9433   75.7672  -43.2037 N   0  0  0  0  0  0  0  0  0  0  0  0
  -36.5651   75.2370  -41.9635 C   0  0  0  0  0  0  0  0  0  0  0  0
  -36.2606   73.7431  -41.7596 C   0  0  0  0  0  0  0  0  0  0  0  0
  -34.8631   73.5218  -41.7827 O   0  0  0  0  0  0  0  0  0  0  0  0
  -34.3247   73.8491  -43.0497 C   0  0  0  0  0  0  0  0  0  0  0  0
  -34.5235   75.3491  -43.3204 C   0  0  0  0  0  0  0  0  0  0  0  0
  -36.3877   78.2093  -45.7345 C   0  0  0  0  0  0  0  0  0  0  0  0
  -37.7200   78.2029  -46.0142 N   0  0  0  0  0  0  0  0  0  0  0  0
  -38.2954   78.6028  -47.1655 C   0  0  0  0  0  0  0  0  0  0  0  0
  -37.6747   78.8923  -48.1886 O   0  0  0  0  0  0  0  0  0  0  0  0
  -39.7984   78.6527  -47.1862 C   0  0  0  0  0  0  0  0  0  0  0  0
  -40.4808   78.5127  -48.4263 C   0  0  0  0  0  0  0  0  0  0  0  0
  -41.8884   78.6004  -48.5035 C   0  0  0  0  0  0  0  0  0  0  0  0
  -42.6024   78.8542  -47.3235 C   0  0  0  0  0  0  0  0  0  0  0  0
  -41.9423   79.0021  -46.1167 C   0  0  0  0  0  0  0  0  0  0  0  0
  -40.5436   78.9229  -46.0092 C   0  0  0  0  0  0  0  0  0  0  0  0
  -42.9449   79.2404  -45.0449 C   0  0  0  0  0  0  0  0  0  0  0  0
  -44.2034   79.5233  -45.8913 C   0  0  0  0  0  0  0  0  0  0  0  0
  -43.9547   79.0015  -47.2053 O   0  0  0  0  0  0  0  0  0  0  0  0
  -35.4848   78.7060  -46.6459 O   0  0  0  0  0  0  0  0  0  0  0  0
  1  2  1  0
  2  3  2  0
  2 25  1  0
  3  4  1  0
  4  5  1  0
  4 12  2  0
  5  6  1  0
  6  7  1  0
  6 11  1  0
  7  8  1  0
  8  9  1  0
  9 10  1  0
 10 11  1  0
 12 13  1  0
 12 25  1  0
 13 14  1  0
 14 15  2  0
 14 16  1  0
 16 17  2  0
 16 21  1  0
 17 18  1  0
 18 19  2  0
 19 20  1  0
 19 24  1  0
 20 21  2  0
 20 22  1  0
 22 23  1  0
 23 24  1  0
M  CHG  1   6   1
M  END
>  <cluster>  (67) 
cluster_85572

>  <glide_score>  (67) 
-6.56851386237771

>  <mmgbsa_dG>  (67) 
-45.4815041112306

$$$$
No_2465
     RDKit          3D

 22 24  0  0  1  0  0  0  0  0999 V2000
  -34.1017   73.1296  -43.4285 C   0  0  0  0  0  0  0  0  0  0  0  0
  -34.7083   74.4746  -42.9776 C   0  0  0  0  0  0  0  0  0  0  0  0
  -35.8744   74.1792  -42.0076 C   0  0  0  0  0  0  0  0  0  0  0  0
  -35.1221   75.4030  -44.0905 N   0  0  1  0  0  0  0  0  0  0  0  0
  -35.2725   76.7899  -43.5458 C   0  0  0  0  0  0  0  0  0  0  0  0
  -35.9322   77.6008  -44.6014 C   0  0  0  0  0  0  0  0  0  0  0  0
  -37.1747   77.4531  -45.0259 N   0  0  0  0  0  0  0  0  0  0  0  0
  -37.2493   78.4441  -45.9514 C   0  0  0  0  0  0  0  0  0  0  0  0
  -38.5054   78.6768  -46.7377 C   0  0  0  0  0  0  0  0  0  0  0  0
  -38.4540   79.0026  -47.9241 O   0  0  0  0  0  0  0  0  0  0  0  0
  -39.6332   78.5995  -46.0077 N   0  0  0  0  0  0  0  0  0  0  0  0
  -40.9791   78.7471  -46.4299 C   0  0  0  0  0  0  0  0  0  0  0  0
  -41.9533   79.0056  -45.4464 C   0  0  0  0  0  0  0  0  0  0  0  0
  -43.3001   79.1343  -45.8373 C   0  0  0  0  0  0  0  0  0  0  0  0
  -43.7116   79.0029  -47.1144 N   0  0  0  0  0  0  0  0  0  0  0  0
  -42.7790   78.7515  -48.0547 C   0  0  0  0  0  0  0  0  0  0  0  0
  -41.4089   78.6027  -47.7687 C   0  0  0  0  0  0  0  0  0  0  0  0
  -36.1506   79.1646  -46.1363 N   0  0  0  0  0  0  0  0  0  0  0  0
  -35.2542   78.6063  -45.2095 O   0  0  0  0  0  0  0  0  0  0  0  0
  -34.2548   75.3721  -45.3192 C   0  0  0  0  0  0  0  0  0  0  0  0
  -34.4059   74.2025  -46.2740 C   0  0  0  0  0  0  0  0  0  0  0  0
  -34.9772   75.5419  -46.6457 C   0  0  0  0  0  0  0  0  0  0  0  0
  1  2  1  0
  2  3  1  0
  2  4  1  0
  4  5  1  1
  4 20  1  0
  5  6  1  0
  6  7  2  0
  6 19  1  0
  7  8  1  0
  8  9  1  0
  8 18  2  0
  9 10  2  0
  9 11  1  0
 11 12  1  0
 12 13  2  0
 12 17  1  0
 13 14  1  0
 14 15  2  0
 15 16  1  0
 16 17  2  0
 18 19  1  0
 20 21  1  0
 20 22  1  0
 21 22  1  0
M  CHG  1   4   1
M  END
>  <cluster>  (68) 
cluster_60501

>  <glide_score>  (68) 
-6.58466871164667

>  <mmgbsa_dG>  (68) 
-45.4598793694386

$$$$
No_2093
     RDKit          3D

 24 25  0  0  1  0  0  0  0  0999 V2000
  -43.7354   79.2737  -45.8830 C   0  0  0  0  0  0  0  0  0  0  0  0
  -42.3369   79.0855  -46.2227 N   0  0  0  0  0  0  0  0  0  0  0  0
  -41.2734   79.3975  -45.3965 C   0  0  0  0  0  0  0  0  0  0  0  0
  -40.1030   79.1152  -46.0440 C   0  0  0  0  0  0  0  0  0  0  0  0
  -38.7087   79.3111  -45.5035 C   0  0  0  0  0  0  0  0  0  0  0  0
  -37.9218   78.0919  -45.6078 N   0  0  0  0  0  0  0  0  0  0  0  0
  -36.8663   77.8749  -46.4023 C   0  0  0  0  0  0  0  0  0  0  0  0
  -36.3396   78.7431  -47.0929 O   0  0  0  0  0  0  0  0  0  0  0  0
  -36.4230   76.6106  -46.3106 N   0  0  0  0  0  0  0  0  0  0  0  0
  -35.1697   76.1100  -46.8609 C   0  0  0  0  0  0  0  0  0  0  0  0
  -34.0430   76.1216  -45.8079 C   0  0  0  0  0  0  0  0  0  0  0  0
  -34.4710   75.3328  -44.5890 C   0  0  0  0  0  0  0  0  0  0  0  0
  -34.2320   74.0048  -44.6276 N   0  0  0  0  0  0  0  0  0  0  0  0
  -34.5550   73.1566  -43.5212 C   0  0  0  0  0  0  0  0  0  0  0  0
  -34.2594   71.9636  -43.6087 O   0  0  0  0  0  0  0  0  0  0  0  0
  -35.2190   73.7403  -42.4901 N   0  0  0  0  0  0  0  0  0  0  0  0
  -35.6281   72.9185  -41.3435 C   0  0  0  0  0  0  0  0  0  0  0  0
  -35.5947   75.0469  -42.4655 C   0  0  0  0  0  0  0  0  0  0  0  0
  -36.3248   75.5405  -41.6077 O   0  0  0  0  0  0  0  0  0  0  0  0
  -35.0765   75.9054  -43.5106 N   0  0  0  0  0  0  0  0  0  0  0  0
  -35.2040   77.3733  -43.3324 C   0  0  0  0  0  0  0  0  0  0  0  0
  -40.4706   78.6036  -47.3220 C   0  0  0  0  0  0  0  0  0  0  0  0
  -41.8347   78.6054  -47.4220 C   0  0  0  0  0  0  0  0  0  0  0  0
  -42.7230   78.2256  -48.5594 C   0  0  0  0  0  0  0  0  0  0  0  0
  1  2  1  0
  2  3  1  0
  2 23  1  0
  3  4  2  0
  4  5  1  0
  4 22  1  0
  5  6  1  0
  6  7  1  0
  7  8  2  0
  7  9  1  0
  9 10  1  0
 10 11  1  0
 11 12  1  0
 12 13  1  0
 12 20  2  0
 13 14  1  0
 14 15  2  0
 14 16  1  0
 16 17  1  0
 16 18  1  0
 18 19  2  0
 18 20  1  0
 20 21  1  0
 22 23  2  0
 23 24  1  0
M  CHG  1  20   1
M  END
>  <cluster>  (69) 
cluster_107613

>  <glide_score>  (69) 
-8.08874424335736

>  <mmgbsa_dG>  (69) 
-45.4405741703813

$$$$
No_2562
     RDKit          3D

 26 28  0  0  1  0  0  0  0  0999 V2000
  -30.7397   73.2591  -51.9583 C   0  0  0  0  0  0  0  0  0  0  0  0
  -31.3722   72.7225  -50.8085 O   0  0  0  0  0  0  0  0  0  0  0  0
  -32.5213   73.4517  -50.3930 C   0  0  2  0  0  0  0  0  0  0  0  0
  -32.1556   74.7721  -49.6796 C   0  0  0  0  0  0  0  0  0  0  0  0
  -33.3827   75.4660  -49.0480 C   0  0  0  0  0  0  0  0  0  0  0  0
  -34.0339   74.5827  -48.0652 N   0  0  0  0  0  0  0  0  0  0  0  0
  -35.2016   75.1983  -47.3862 C   0  0  0  0  0  0  0  0  0  0  0  0
  -34.9353   76.3601  -46.4124 C   0  0  0  0  0  0  0  0  0  0  0  0
  -33.9013   77.0262  -46.4395 O   0  0  0  0  0  0  0  0  0  0  0  0
  -35.9224   76.6026  -45.5394 N   0  0  0  0  0  0  0  0  0  0  0  0
  -35.9788   77.7217  -44.6098 C   0  0  0  0  0  0  0  0  0  0  0  0
  -36.4119   79.0290  -45.3022 C   0  0  0  0  0  0  0  0  0  0  0  0
  -37.6500   78.8999  -46.1360 C   0  0  0  0  0  0  0  0  0  0  0  0
  -38.8753   79.0031  -45.6074 N   0  0  0  0  0  0  0  0  0  0  0  0
  -39.6997   78.8257  -46.6518 C   0  0  0  0  0  0  0  0  0  0  0  0
  -41.1575   78.8954  -46.5701 C   0  0  0  0  0  0  0  0  0  0  0  0
  -41.9426   78.8861  -47.7436 C   0  0  0  0  0  0  0  0  0  0  0  0
  -43.3416   78.9979  -47.6606 C   0  0  0  0  0  0  0  0  0  0  0  0
  -43.9753   79.0963  -46.4080 C   0  0  0  0  0  0  0  0  0  0  0  0
  -43.2018   79.0950  -45.2335 C   0  0  0  0  0  0  0  0  0  0  0  0
  -41.7998   79.0028  -45.3164 C   0  0  0  0  0  0  0  0  0  0  0  0
  -39.0165   78.6034  -47.7826 N   0  0  0  0  0  0  0  0  0  0  0  0
  -37.6754   78.6443  -47.4441 N   0  0  0  0  0  0  0  0  0  0  0  0
  -34.4741   73.3406  -48.7117 C   0  0  0  0  0  0  0  0  0  0  0  0
  -33.3463   72.5997  -49.4274 C   0  0  0  0  0  0  0  0  0  0  0  0
  -33.1210   71.4073  -49.2078 O   0  0  0  0  0  0  0  0  0  0  0  0
  1  2  1  0
  3  2  1  1
  3  4  1  0
  3 25  1  0
  4  5  1  0
  5  6  1  0
  6  7  1  0
  6 24  1  0
  7  8  1  0
  8  9  2  0
  8 10  1  0
 10 11  1  0
 11 12  1  0
 12 13  1  0
 13 14  1  0
 13 23  2  0
 14 15  1  0
 15 16  1  0
 15 22  2  0
 16 17  2  0
 16 21  1  0
 17 18  1  0
 18 19  2  0
 19 20  1  0
 20 21  2  0
 22 23  1  0
 24 25  1  0
 25 26  2  0
M  END
>  <cluster>  (70) 
cluster_123910

>  <glide_score>  (70) 
-7.26981719592064

>  <mmgbsa_dG>  (70) 
-45.3469157774816

$$$$
No_15
     RDKit          3D

 24 26  0  0  1  0  0  0  0  0999 V2000
  -41.3895   81.7582  -53.4607 C   0  0  0  0  0  0  0  0  0  0  0  0
  -42.3618   80.6153  -53.1398 C   0  0  1  0  0  0  0  0  0  0  0  0
  -42.3720   80.3772  -51.7013 N   0  0  0  0  0  0  0  0  0  0  0  0
  -42.1947   79.1902  -51.1086 C   0  0  0  0  0  0  0  0  0  0  0  0
  -41.9663   78.1347  -51.7012 O   0  0  0  0  0  0  0  0  0  0  0  0
  -42.3210   79.2802  -49.7848 N   0  0  0  0  0  0  0  0  0  0  0  0
  -42.1964   78.1504  -48.8836 C   0  0  0  0  0  0  0  0  0  0  0  0
  -42.3677   78.5946  -47.4415 C   0  0  0  0  0  0  0  0  0  0  0  0
  -43.6955   78.7795  -47.0008 C   0  0  0  0  0  0  0  0  0  0  0  0
  -43.9719   79.1891  -45.6930 C   0  0  0  0  0  0  0  0  0  0  0  0
  -42.9127   79.4026  -44.8077 C   0  0  0  0  0  0  0  0  0  0  0  0
  -41.5830   79.2342  -45.2238 C   0  0  0  0  0  0  0  0  0  0  0  0
  -41.2823   78.8279  -46.5441 C   0  0  0  0  0  0  0  0  0  0  0  0
  -39.8351   78.7189  -46.9566 C   0  0  0  0  0  0  0  0  0  0  0  0
  -39.4665   79.0029  -48.0958 O   0  0  0  0  0  0  0  0  0  0  0  0
  -38.9871   78.2957  -46.0077 N   0  0  0  0  0  0  0  0  0  0  0  0
  -37.5929   78.0631  -46.1990 C   0  0  0  0  0  0  0  0  0  0  0  0
  -36.6102   78.8112  -45.3262 C   0  0  0  0  0  0  0  0  0  0  0  0
  -36.8522   77.3435  -45.0932 C   0  0  0  0  0  0  0  0  0  0  0  0
  -43.7872   80.9148  -53.6131 C   0  0  0  0  0  0  0  0  0  0  0  0
  -44.0702   80.8858  -55.1351 C   0  0  0  0  0  0  0  0  0  0  0  0
  -44.7981   79.5519  -54.9005 C   0  0  0  0  0  0  0  0  0  0  0  0
  -45.1220   78.6027  -55.6112 O   0  0  0  0  0  0  0  0  0  0  0  0
  -44.8753   79.8353  -53.3950 C   0  0  0  0  0  0  0  0  0  0  0  0
  2  1  1  1
  2  3  1  0
  2 20  1  0
  3  4  1  0
  4  5  2  0
  4  6  1  0
  6  7  1  0
  7  8  1  0
  8  9  2  0
  8 13  1  0
  9 10  1  0
 10 11  2  0
 11 12  1  0
 12 13  2  0
 13 14  1  0
 14 15  2  0
 14 16  1  0
 16 17  1  0
 17 18  1  0
 17 19  1  0
 18 19  1  0
 20 21  1  0
 20 24  1  0
 21 22  1  0
 22 23  2  0
 22 24  1  0
M  END
>  <cluster>  (71) 
cluster_105535

>  <glide_score>  (71) 
-6.54255774615954

>  <mmgbsa_dG>  (71) 
-45.2777102993932

$$$$
No_5260
     RDKit          3D

 23 25  0  0  1  0  0  0  0  0999 V2000
  -35.5248   78.4371  -44.1912 O   0  0  0  0  0  0  0  0  0  0  0  0
  -35.9051   77.3893  -44.7144 C   0  0  0  0  0  0  0  0  0  0  0  0
  -35.9211   76.2030  -44.1032 N   0  0  0  0  0  0  0  0  0  0  0  0
  -35.3639   75.8971  -42.8071 C   0  0  0  0  0  0  0  0  0  0  0  0
  -35.4601   74.4255  -42.4482 C   0  0  0  0  0  0  0  0  0  0  0  0
  -34.6586   73.3961  -43.2142 C   0  0  0  0  0  0  0  0  0  0  0  0
  -34.3216   73.6905  -41.7767 C   0  0  0  0  0  0  0  0  0  0  0  0
  -36.3560   77.2805  -45.9688 N   0  0  0  0  0  0  0  0  0  0  0  0
  -36.6257   78.3737  -46.8904 C   0  0  0  0  0  0  0  0  0  0  0  0
  -38.1033   78.6019  -46.9787 C   0  0  0  0  0  0  0  0  0  0  0  0
  -38.9257   78.8661  -45.9221 C   0  0  0  0  0  0  0  0  0  0  0  0
  -40.2639   78.8535  -46.4030 C   0  0  0  0  0  0  0  0  0  0  0  0
  -41.4007   79.0089  -45.7155 N   0  0  0  0  0  0  0  0  0  0  0  0
  -42.5547   79.0034  -46.4127 C   0  0  0  0  0  0  0  0  0  0  0  0
  -43.8175   79.2395  -45.6117 C   0  0  0  0  0  0  0  0  0  0  0  0
  -42.6231   78.8101  -47.8023 C   0  0  0  0  0  0  0  0  0  0  0  0
  -41.4404   78.6021  -48.5318 C   0  0  0  0  0  0  0  0  0  0  0  0
  -41.5442   78.3542  -50.0052 C   0  0  0  0  0  0  0  0  0  0  0  0
  -42.2452   79.2670  -50.6819 N   0  0  0  0  0  0  0  0  0  0  0  0
  -41.0360   77.3709  -50.5389 O   0  0  0  0  0  0  0  0  0  0  0  0
  -40.2173   78.6383  -47.8159 C   0  0  0  0  0  0  0  0  0  0  0  0
  -38.8607   78.5385  -48.1512 N   0  0  0  0  0  0  0  0  0  0  0  0
  -38.3126   78.3754  -49.4901 C   0  0  0  0  0  0  0  0  0  0  0  0
  1  2  2  0
  2  3  1  0
  2  8  1  0
  3  4  1  0
  4  5  1  0
  5  6  1  0
  5  7  1  0
  6  7  1  0
  8  9  1  0
  9 10  1  0
 10 11  2  0
 10 22  1  0
 11 12  1  0
 12 13  2  0
 12 21  1  0
 13 14  1  0
 14 15  1  0
 14 16  2  0
 16 17  1  0
 17 18  1  0
 17 21  2  0
 18 19  1  0
 18 20  2  0
 21 22  1  0
 22 23  1  0
M  END
>  <cluster>  (72) 
cluster_52744

>  <glide_score>  (72) 
-6.70178415055589

>  <mmgbsa_dG>  (72) 
-45.2116450975591

$$$$
No_3825
     RDKit          3D

 20 22  0  0  1  0  0  0  0  0999 V2000
  -44.0619   79.0092  -46.7440 C   0  0  0  0  0  0  0  0  0  0  0  0
  -42.5516   79.0022  -46.5869 C   0  0  0  0  0  0  0  0  0  0  0  0
  -41.9386   79.3910  -45.4187 C   0  0  0  0  0  0  0  0  0  0  0  0
  -40.5256   79.4026  -45.3247 C   0  0  0  0  0  0  0  0  0  0  0  0
  -39.7423   79.0099  -46.3904 C   0  0  0  0  0  0  0  0  0  0  0  0
  -38.2242   79.0578  -46.2719 C   0  0  0  0  0  0  0  0  0  0  0  0
  -37.7189   78.2016  -45.2076 N   0  0  0  0  0  0  0  0  0  0  0  0
  -36.0409   77.9509  -44.8963 S   0  0  0  0  0  0  0  0  0  0  0  0
  -35.5224   79.1120  -44.1564 O   0  0  0  0  0  0  0  0  0  0  0  0
  -35.4026   77.5016  -46.1416 O   0  0  0  0  0  0  0  0  0  0  0  0
  -36.1581   76.6025  -43.8312 N   0  0  0  0  0  0  0  0  0  0  0  0
  -34.9177   76.0035  -43.3268 C   0  0  0  0  0  0  0  0  0  0  0  0
  -35.2207   74.8585  -42.3691 C   0  0  0  0  0  0  0  0  0  0  0  0
  -35.3280   73.4348  -42.8656 C   0  0  0  0  0  0  0  0  0  0  0  0
  -34.1594   73.8319  -42.0073 C   0  0  0  0  0  0  0  0  0  0  0  0
  -40.3687   78.6029  -47.6041 C   0  0  0  0  0  0  0  0  0  0  0  0
  -39.9150   78.2038  -48.7984 N   0  0  0  0  0  0  0  0  0  0  0  0
  -41.0149   77.9612  -49.6093 N   0  0  0  0  0  0  0  0  0  0  0  0
  -42.1134   78.2242  -48.9001 C   0  0  0  0  0  0  0  0  0  0  0  0
  -41.7769   78.6229  -47.6452 N   0  0  0  0  0  0  0  0  0  0  0  0
  1  2  1  0
  2  3  2  0
  2 20  1  0
  3  4  1  0
  4  5  2  0
  5  6  1  0
  5 16  1  0
  6  7  1  0
  7  8  1  0
  8  9  2  0
  8 10  2  0
  8 11  1  0
 11 12  1  0
 12 13  1  0
 13 14  1  0
 13 15  1  0
 14 15  1  0
 16 17  2  0
 16 20  1  0
 17 18  1  0
 18 19  2  0
 19 20  1  0
M  END
>  <cluster>  (73) 
cluster_40757

>  <glide_score>  (73) 
-6.6439008475566

>  <mmgbsa_dG>  (73) 
-45.1654203894504

$$$$
No_4861
     RDKit          3D

 22 24  0  0  1  0  0  0  0  0999 V2000
  -31.5217   80.8319  -39.4922 C   0  0  0  0  0  0  0  0  0  0  0  0
  -32.6195   81.2413  -40.4785 C   0  0  0  0  0  0  0  0  0  0  0  0
  -33.9144   80.4664  -40.2084 C   0  0  0  0  0  0  0  0  0  0  0  0
  -32.1404   81.0027  -41.8442 N   0  0  0  0  0  0  0  0  0  0  0  0
  -32.8608   81.7595  -43.2157 S   0  0  0  0  0  0  0  0  0  0  0  0
  -33.4149   83.0592  -42.8103 O   0  0  0  0  0  0  0  0  0  0  0  0
  -31.9223   81.6480  -44.3414 O   0  0  0  0  0  0  0  0  0  0  0  0
  -34.1876   80.7031  -43.5231 N   0  0  0  0  0  0  0  0  0  0  0  0
  -35.0576   81.0471  -44.6504 C   0  0  0  0  0  0  0  0  0  0  0  0
  -35.9868   79.9359  -45.0124 C   0  0  0  0  0  0  0  0  0  0  0  0
  -35.8228   78.5968  -45.2353 C   0  0  0  0  0  0  0  0  0  0  0  0
  -37.0941   78.0973  -45.6346 C   0  0  0  0  0  0  0  0  0  0  0  0
  -37.9453   79.1673  -45.6155 C   0  0  0  0  0  0  0  0  0  0  0  0
  -39.2950   79.0550  -46.0000 N   0  0  0  0  0  0  0  0  0  0  0  0
  -40.3847   79.4026  -45.2091 C   0  0  0  0  0  0  0  0  0  0  0  0
  -41.5017   79.1130  -45.9382 C   0  0  0  0  0  0  0  0  0  0  0  0
  -41.1108   78.6565  -47.1944 C   0  0  0  0  0  0  0  0  0  0  0  0
  -39.7480   78.6025  -47.2356 C   0  0  0  0  0  0  0  0  0  0  0  0
  -42.2685   78.3958  -48.0932 C   0  0  0  0  0  0  0  0  0  0  0  0
  -43.4841   78.5773  -47.1288 C   0  0  0  0  0  0  0  0  0  0  0  0
  -42.9798   79.2070  -45.7910 C   0  0  0  0  0  0  0  0  0  0  0  0
  -37.2908   80.2897  -45.2073 O   0  0  0  0  0  0  0  0  0  0  0  0
  1  2  1  0
  2  3  1  0
  2  4  1  0
  4  5  1  0
  5  6  2  0
  5  7  2  0
  5  8  1  0
  8  9  1  0
  9 10  1  0
 10 11  2  0
 10 22  1  0
 11 12  1  0
 12 13  2  0
 13 14  1  0
 13 22  1  0
 14 15  1  0
 14 18  1  0
 15 16  2  0
 16 17  1  0
 16 21  1  0
 17 18  2  0
 17 19  1  0
 19 20  1  0
 20 21  1  0
M  END
>  <cluster>  (74) 
cluster_105105

>  <glide_score>  (74) 
-6.54910646447897

>  <mmgbsa_dG>  (74) 
-45.1178208450583

$$$$
No_4751
     RDKit          3D

 21 22  0  0  1  0  0  0  0  0999 V2000
  -36.3204   75.6072  -42.3795 C   0  0  0  0  0  0  0  0  0  0  0  0
  -35.9861   76.7855  -43.2855 C   0  0  0  0  0  0  0  0  0  0  0  0
  -35.5162   77.8120  -42.8071 O   0  0  0  0  0  0  0  0  0  0  0  0
  -36.2385   76.6027  -44.5907 N   0  0  0  0  0  0  0  0  0  0  0  0
  -36.0304   77.4813  -45.7527 C   0  0  0  0  0  0  0  0  0  0  0  0
  -34.6458   78.1781  -45.7006 C   0  0  0  0  0  0  0  0  0  0  0  0
  -35.9804   76.5013  -46.9456 C   0  0  0  0  0  0  0  0  0  0  0  0
  -37.1711   78.5583  -45.7782 C   0  0  0  0  0  0  0  0  0  0  0  0
  -37.0551   79.5375  -45.0381 O   0  0  0  0  0  0  0  0  0  0  0  0
  -38.3238   78.3858  -46.4670 N   0  0  0  0  0  0  0  0  0  0  0  0
  -39.6002   79.0182  -46.1047 C   0  0  0  0  0  0  0  0  0  0  0  0
  -40.5649   78.8173  -47.2463 C   0  0  0  0  0  0  0  0  0  0  0  0
  -41.9561   79.0027  -47.1747 C   0  0  0  0  0  0  0  0  0  0  0  0
  -42.7220   78.8134  -48.3436 C   0  0  0  0  0  0  0  0  0  0  0  0
  -42.1058   78.4237  -49.5564 C   0  0  0  0  0  0  0  0  0  0  0  0
  -40.7055   78.2026  -49.6202 C   0  0  0  0  0  0  0  0  0  0  0  0
  -40.0273   77.7887  -50.7460 O   0  0  0  0  0  0  0  0  0  0  0  0
  -40.7591   77.6710  -51.9573 C   0  0  0  0  0  0  0  0  0  0  0  0
  -39.9733   78.4163  -48.4398 C   0  0  0  0  0  0  0  0  0  0  0  0
  -38.2052   78.1650  -48.2466 S   0  0  0  0  0  0  0  0  0  0  0  0
  -37.5359   79.4019  -48.8457 O   0  0  0  0  0  0  0  0  0  0  0  0
  1  2  1  0
  2  3  2  0
  2  4  1  0
  4  5  1  0
  5  6  1  0
  5  7  1  0
  5  8  1  0
  8  9  2  0
  8 10  1  0
 10 11  1  0
 20 10  1  1
 11 12  1  0
 12 13  2  0
 12 19  1  0
 13 14  1  0
 14 15  2  0
 15 16  1  0
 16 17  1  0
 16 19  2  0
 17 18  1  0
 19 20  1  0
 20 21  2  0
M  END
>  <cluster>  (75) 
cluster_15303

>  <glide_score>  (75) 
-6.86939707125422

>  <mmgbsa_dG>  (75) 
-45.071507816283

$$$$
No_1430
     RDKit          3D

 21 23  0  0  1  0  0  0  0  0999 V2000
  -35.7012   79.3890  -44.1947 O   0  0  0  0  0  0  0  0  0  0  0  0
  -35.8330   78.2603  -44.6762 C   0  0  0  0  0  0  0  0  0  0  0  0
  -34.9202   77.1475  -44.1629 C   0  0  0  0  0  0  0  0  0  0  0  0
  -35.6877   76.0077  -43.6074 N   0  0  1  0  0  0  0  0  0  0  0  0
  -34.8770   74.8460  -43.2181 C   0  0  0  0  0  0  0  0  0  0  0  0
  -35.6936   74.1446  -42.1306 C   0  0  0  0  0  0  0  0  0  0  0  0
  -36.8656   74.9830  -41.9284 N   0  0  0  0  0  0  0  0  0  0  0  0
  -36.5101   76.2956  -42.4262 C   0  0  0  0  0  0  0  0  0  0  0  0
  -36.7207   77.9197  -45.6333 N   0  0  0  0  0  0  0  0  0  0  0  0
  -37.7145   78.6770  -46.1367 C   0  0  0  0  0  0  0  0  0  0  0  0
  -38.0137   79.8015  -45.7341 O   0  0  0  0  0  0  0  0  0  0  0  0
  -38.4879   78.0266  -47.2915 C   0  0  0  0  0  0  0  0  0  0  0  0
  -39.6972   78.6857  -47.7762 N   0  0  0  0  0  0  0  0  0  0  0  0
  -40.1402   78.4125  -49.1592 C   0  0  0  0  0  0  0  0  0  0  0  0
  -41.6984   78.3397  -49.1823 C   0  0  2  0  0  0  0  0  0  0  0  0
  -42.3283   79.3417  -50.1594 C   0  0  0  0  0  0  0  0  0  0  0  0
  -41.9889   78.6042  -47.7664 C   0  0  0  0  0  0  0  0  0  0  0  0
  -43.4528   78.7064  -46.8419 S   0  0  0  0  0  0  0  0  0  0  0  0
  -42.4992   79.0038  -45.3935 C   0  0  0  0  0  0  0  0  0  0  0  0
  -41.1436   79.0025  -45.6443 C   0  0  0  0  0  0  0  0  0  0  0  0
  -40.8831   78.7671  -47.0265 C   0  0  0  0  0  0  0  0  0  0  0  0
  1  2  2  0
  2  3  1  0
  2  9  1  0
  4  3  1  1
  4  5  1  0
  4  8  1  0
  5  6  1  0
  6  7  1  0
  7  8  1  0
  9 10  1  0
 10 11  2  0
 10 12  1  0
 12 13  1  0
 13 14  1  0
 13 21  1  0
 14 15  1  0
 15 16  1  6
 15 17  1  0
 17 18  1  0
 17 21  2  0
 18 19  1  0
 19 20  2  0
 20 21  1  0
M  CHG  1   4   1
M  END
>  <cluster>  (76) 
cluster_80570

>  <glide_score>  (76) 
-8.12827396405202

>  <mmgbsa_dG>  (76) 
-45.0154267121543

$$$$
No_325
     RDKit          3D

 22 23  0  0  1  0  0  0  0  0999 V2000
  -35.5223   78.4251  -43.8881 O   0  0  0  0  0  0  0  0  0  0  0  0
  -35.8883   77.4562  -44.5548 C   0  0  0  0  0  0  0  0  0  0  0  0
  -36.3376   77.6257  -46.0105 C   0  0  0  0  0  0  0  0  0  0  0  0
  -37.0421   78.9621  -46.3238 C   0  0  0  0  0  0  0  0  0  0  0  0
  -38.4757   78.9229  -46.0434 N   0  0  0  0  0  0  0  0  0  0  0  0
  -39.4239   78.6026  -46.9441 C   0  0  0  0  0  0  0  0  0  0  0  0
  -39.1228   78.1786  -48.0611 O   0  0  0  0  0  0  0  0  0  0  0  0
  -40.6949   78.8253  -46.5152 N   0  0  0  0  0  0  0  0  0  0  0  0
  -41.0178   79.5040  -45.2595 C   0  0  0  0  0  0  0  0  0  0  0  0
  -42.5363   79.5764  -45.2466 C   0  0  0  0  0  0  0  0  0  0  0  0
  -42.8841   78.9948  -46.5179 N   0  0  0  0  0  0  0  0  0  0  0  0
  -44.2671   78.9993  -46.9713 C   0  0  0  0  0  0  0  0  0  0  0  0
  -41.8226   78.6027  -47.2354 C   0  0  0  0  0  0  0  0  0  0  0  0
  -41.9079   78.1261  -48.3689 O   0  0  0  0  0  0  0  0  0  0  0  0
  -35.8715   76.2027  -44.0880 N   0  0  0  0  0  0  0  0  0  0  0  0
  -35.2902   75.7795  -42.8294 C   0  0  0  0  0  0  0  0  0  0  0  0
  -35.0882   74.2817  -42.7364 C   0  0  0  0  0  0  0  0  0  0  0  0
  -35.5223   73.4183  -41.6902 C   0  0  0  0  0  0  0  0  0  0  0  0
  -35.1222   72.1502  -42.0075 C   0  0  0  0  0  0  0  0  0  0  0  0
  -34.4656   72.1346  -43.1986 O   0  0  0  0  0  0  0  0  0  0  0  0
  -34.4635   73.4301  -43.6075 C   0  0  0  0  0  0  0  0  0  0  0  0
  -33.9221   73.7993  -44.7921 F   0  0  0  0  0  0  0  0  0  0  0  0
  1  2  2  0
  2  3  1  0
  2 15  1  0
  3  4  1  0
  4  5  1  0
  5  6  1  0
  6  7  2  0
  6  8  1  0
  8  9  1  0
  8 13  1  0
  9 10  1  0
 10 11  1  0
 11 12  1  0
 11 13  1  0
 13 14  2  0
 15 16  1  0
 16 17  1  0
 17 18  1  0
 17 21  2  0
 18 19  2  0
 19 20  1  0
 20 21  1  0
 21 22  1  0
M  END
>  <cluster>  (77) 
cluster_79465

>  <glide_score>  (77) 
-6.60479119286979

>  <mmgbsa_dG>  (77) 
-44.9846790575539

$$$$
No_637
     RDKit          3D

 22 25  0  0  1  0  0  0  0  0999 V2000
  -35.7362   69.9797  -51.6580 C   0  0  0  0  0  0  0  0  0  0  0  0
  -35.9005   71.0031  -50.5902 C   0  0  0  0  0  0  0  0  0  0  0  0
  -36.9406   71.8120  -50.4047 N   0  0  0  0  0  0  0  0  0  0  0  0
  -36.5344   72.5055  -49.3034 C   0  0  0  0  0  0  0  0  0  0  0  0
  -37.3818   73.5559  -48.6572 C   0  0  0  0  0  0  0  0  0  0  0  0
  -36.9927   74.9286  -48.9754 N   0  0  0  0  0  0  0  0  0  0  0  0
  -35.7332   75.3336  -48.3605 C   0  0  0  0  0  0  0  0  0  0  0  0
  -35.8116   76.8645  -48.3111 C   0  0  0  0  0  0  0  0  0  0  0  0
  -37.2318   77.1583  -48.1942 N   0  0  0  0  0  0  0  0  0  0  0  0
  -37.7382   78.3208  -47.7323 C   0  0  0  0  0  0  0  0  0  0  0  0
  -37.0294   79.2561  -47.3607 O   0  0  0  0  0  0  0  0  0  0  0  0
  -39.2322   78.4683  -47.6632 C   0  0  0  0  0  0  0  0  0  0  0  0
  -40.0252   78.3723  -48.8598 C   0  0  0  0  0  0  0  0  0  0  0  0
  -41.4406   78.5254  -48.8658 C   0  0  0  0  0  0  0  0  0  0  0  0
  -41.9927   78.7849  -47.6106 C   0  0  0  0  0  0  0  0  0  0  0  0
  -41.2121   78.9088  -46.4264 C   0  0  0  0  0  0  0  0  0  0  0  0
  -39.8249   78.7674  -46.4022 C   0  0  0  0  0  0  0  0  0  0  0  0
  -42.4091   79.1987  -45.5589 C   0  0  0  0  0  0  0  0  0  0  0  0
  -43.2907   79.0623  -46.8942 C   0  0  0  0  0  0  0  0  0  0  0  0
  -37.9223   75.9045  -48.4372 C   0  0  0  0  0  0  0  0  0  0  0  0
  -35.3478   72.1658  -48.8077 N   0  0  0  0  0  0  0  0  0  0  0  0
  -34.9152   71.1489  -49.6708 O   0  0  0  0  0  0  0  0  0  0  0  0
  1  2  1  0
  2  3  2  0
  2 22  1  0
  3  4  1  0
  4  5  1  0
  4 21  2  0
  5  6  1  0
  6  7  1  0
  6 20  1  0
  7  8  1  0
  8  9  1  0
  9 10  1  0
  9 20  1  0
 10 11  2  0
 10 12  1  0
 12 13  2  0
 12 17  1  0
 13 14  1  0
 14 15  2  0
 15 16  1  0
 15 19  1  0
 16 17  2  0
 16 18  1  0
 18 19  1  0
 21 22  1  0
M  END
>  <cluster>  (78) 
cluster_58673

>  <glide_score>  (78) 
-6.52635762901307

>  <mmgbsa_dG>  (78) 
-44.9000733423964

$$$$
No_3520
     RDKit          3D

 20 23  0  0  1  0  0  0  0  0999 V2000
  -36.5026   75.9429  -47.4437 O   0  0  0  0  0  0  0  0  0  0  0  0
  -36.7643   77.0532  -46.9834 C   0  0  0  0  0  0  0  0  0  0  0  0
  -36.4995   77.3491  -45.4971 C   0  0  0  0  0  0  0  0  0  0  0  0
  -35.7509   78.5788  -45.1969 N   0  0  0  0  0  0  0  0  0  0  0  0
  -36.5865   79.7843  -45.1596 C   0  0  0  0  0  0  0  0  0  0  0  0
  -35.7622   81.0460  -44.8439 C   0  0  0  0  0  0  0  0  0  0  0  0
  -35.0729   80.8736  -43.6080 O   0  0  0  0  0  0  0  0  0  0  0  0
  -34.2079   79.7388  -43.6201 C   0  0  0  0  0  0  0  0  0  0  0  0
  -35.0129   78.4649  -43.9387 C   0  0  0  0  0  0  0  0  0  0  0  0
  -37.3846   78.1113  -47.8485 C   0  0  1  0  0  0  0  0  0  0  0  0
  -38.2738   77.6950  -49.0869 C   0  0  0  0  0  0  0  0  0  0  0  0
  -38.8539   78.2049  -47.8339 C   0  0  0  0  0  0  0  0  0  0  0  0
  -39.9554   78.5451  -47.1485 C   0  0  0  0  0  0  0  0  0  0  0  0
  -40.0398   79.0036  -45.8279 N   0  0  0  0  0  0  0  0  0  0  0  0
  -41.4181   79.0552  -45.9158 C   0  0  0  0  0  0  0  0  0  0  0  0
  -42.5305   79.4027  -45.1509 C   0  0  0  0  0  0  0  0  0  0  0  0
  -43.7717   79.2845  -45.8142 C   0  0  0  0  0  0  0  0  0  0  0  0
  -43.8533   78.8367  -47.1617 C   0  0  0  0  0  0  0  0  0  0  0  0
  -42.7057   78.4907  -47.9262 C   0  0  0  0  0  0  0  0  0  0  0  0
  -41.4552   78.6048  -47.2983 C   0  0  0  0  0  0  0  0  0  0  0  0
  1  2  2  0
  2  3  1  0
 10  2  1  1
  3  4  1  0
  4  5  1  0
  4  9  1  0
  5  6  1  0
  6  7  1  0
  7  8  1  0
  8  9  1  0
 10 11  1  0
 10 12  1  0
 11 12  1  0
 12 13  2  0
 13 14  1  0
 13 20  1  0
 14 15  1  0
 15 16  2  0
 15 20  1  0
 16 17  1  0
 17 18  2  0
 18 19  1  0
 19 20  2  0
M  END
>  <cluster>  (79) 
cluster_93212

>  <glide_score>  (79) 
-6.63470023913001

>  <mmgbsa_dG>  (79) 
-44.8761749466212

$$$$
No_1395
     RDKit          3D

 19 22  0  0  1  0  0  0  0  0999 V2000
  -38.3503   78.8589  -47.9073 O   0  0  0  0  0  0  0  0  0  0  0  0
  -38.9222   78.6038  -46.8480 C   0  0  0  0  0  0  0  0  0  0  0  0
  -38.3223   78.2027  -45.7139 N   0  0  0  0  0  0  0  0  0  0  0  0
  -36.9055   77.9825  -45.5181 C   0  0  1  0  0  0  0  0  0  0  0  0
  -36.2927   77.0023  -46.5486 C   0  0  0  0  0  0  0  0  0  0  0  0
  -34.8710   76.7855  -46.3122 N   0  0  0  0  0  0  0  0  0  0  0  0
  -34.3133   75.9000  -47.3234 C   0  0  0  0  0  0  0  0  0  0  0  0
  -33.0931   75.0758  -47.0067 C   0  0  0  0  0  0  0  0  0  0  0  0
  -34.4486   74.4107  -47.1506 C   0  0  0  0  0  0  0  0  0  0  0  0
  -34.2022   78.0814  -46.3222 C   0  0  0  0  0  0  0  0  0  0  0  0
  -34.8247   79.0565  -45.3038 C   0  0  0  0  0  0  0  0  0  0  0  0
  -36.2232   79.2013  -45.5524 O   0  0  0  0  0  0  0  0  0  0  0  0
  -40.4042   78.6849  -46.7396 C   0  0  0  0  0  0  0  0  0  0  0  0
  -41.1048   78.9466  -45.6216 N   0  0  0  0  0  0  0  0  0  0  0  0
  -42.4609   78.7048  -45.8165 C   0  0  0  0  0  0  0  0  0  0  0  0
  -42.8079   78.4942  -47.2162 C   0  0  0  0  0  0  0  0  0  0  0  0
  -41.3958   78.6021  -48.2192 S   0  0  0  0  0  0  0  0  0  0  0  0
  -44.0477   79.3044  -47.1027 C   0  0  0  0  0  0  0  0  0  0  0  0
  -43.6526   79.5700  -45.6109 C   0  0  0  0  0  0  0  0  0  0  0  0
  1  2  2  0
  2  3  1  0
  2 13  1  0
  4  3  1  6
  4  5  1  0
  4 12  1  0
  5  6  1  0
  6  7  1  0
  6 10  1  0
  7  8  1  0
  7  9  1  0
  8  9  1  0
 10 11  1  0
 11 12  1  0
 13 14  2  0
 13 17  1  0
 14 15  1  0
 15 16  2  0
 15 19  1  0
 16 17  1  0
 16 18  1  0
 18 19  1  0
M  END
>  <cluster>  (80) 
cluster_38327

>  <glide_score>  (80) 
-6.54544726299484

>  <mmgbsa_dG>  (80) 
-44.7661603090528

$$$$
No_2278
     RDKit          3D

 24 27  0  0  1  0  0  0  0  0999 V2000
  -35.2114   73.1762  -41.5866 C   0  0  0  0  0  0  0  0  0  0  0  0
  -35.4487   74.4370  -42.2560 N   0  0  0  0  0  0  0  0  0  0  0  0
  -36.3345   75.4039  -42.0097 C   0  0  0  0  0  0  0  0  0  0  0  0
  -36.2700   76.4206  -42.8621 N   0  0  0  0  0  0  0  0  0  0  0  0
  -35.2572   75.9768  -43.6644 C   0  0  0  0  0  0  0  0  0  0  0  0
  -34.8886   76.6630  -44.9394 C   0  0  0  0  0  0  0  0  0  0  0  0
  -35.8080   76.2027  -46.0020 N   0  0  2  0  0  0  0  0  0  0  0  0
  -35.2143   75.5560  -47.1768 C   0  0  0  0  0  0  0  0  0  0  0  0
  -36.3411   75.5785  -48.2177 C   0  0  0  0  0  0  0  0  0  0  0  0
  -37.2447   76.6680  -47.8265 N   0  0  0  0  0  0  0  0  0  0  0  0
  -38.3219   77.0036  -48.5838 C   0  0  0  0  0  0  0  0  0  0  0  0
  -38.5828   76.3668  -49.6059 O   0  0  0  0  0  0  0  0  0  0  0  0
  -38.9695   78.1586  -48.2828 N   0  0  0  0  0  0  0  0  0  0  0  0
  -39.6196   78.9141  -49.3671 C   0  0  0  0  0  0  0  0  0  0  0  0
  -41.1240   78.6065  -49.4311 C   0  0  0  0  0  0  0  0  0  0  0  0
  -41.7883   78.8243  -48.0864 C   0  0  0  0  0  0  0  0  0  0  0  0
  -43.1614   79.1265  -48.0110 C   0  0  0  0  0  0  0  0  0  0  0  0
  -43.7721   79.3684  -46.7659 C   0  0  0  0  0  0  0  0  0  0  0  0
  -43.0091   79.3009  -45.5865 C   0  0  0  0  0  0  0  0  0  0  0  0
  -41.6353   79.0024  -45.6563 C   0  0  0  0  0  0  0  0  0  0  0  0
  -41.0217   78.7614  -46.9041 C   0  0  0  0  0  0  0  0  0  0  0  0
  -39.5418   78.4206  -46.9483 C   0  0  0  0  0  0  0  0  0  0  0  0
  -36.7596   77.1783  -46.5430 C   0  0  0  0  0  0  0  0  0  0  0  0
  -34.7224   74.7993  -43.3389 N   0  0  0  0  0  0  0  0  0  0  0  0
  1  2  1  0
  2  3  1  0
  2 24  1  0
  3  4  2  0
  4  5  1  0
  5  6  1  0
  5 24  2  0
  7  6  1  6
  7  8  1  0
  7 23  1  0
  8  9  1  0
  9 10  1  0
 10 11  1  0
 10 23  1  0
 11 12  2  0
 11 13  1  0
 13 14  1  0
 13 22  1  0
 14 15  1  0
 15 16  1  0
 16 17  2  0
 16 21  1  0
 17 18  1  0
 18 19  2  0
 19 20  1  0
 20 21  2  0
 21 22  1  0
M  CHG  1   7   1
M  END
>  <cluster>  (81) 
cluster_55038

>  <glide_score>  (81) 
-6.5858685509071

>  <mmgbsa_dG>  (81) 
-44.7420923252794

$$$$
No_4925
     RDKit          3D

 19 21  0  0  1  0  0  0  0  0999 V2000
  -40.0691   78.9955  -47.8837 O   0  0  0  0  0  0  0  0  0  0  0  0
  -40.0436   78.8238  -46.6648 C   0  0  0  0  0  0  0  0  0  0  0  0
  -38.9311   78.4714  -46.0078 N   0  0  0  0  0  0  0  0  0  0  0  0
  -37.6082   78.2988  -46.5968 C   0  0  0  0  0  0  0  0  0  0  0  0
  -36.5259   78.6827  -45.6061 C   0  0  0  0  0  0  0  0  0  0  0  0
  -36.2561   77.8014  -44.5055 C   0  0  0  0  0  0  0  0  0  0  0  0
  -35.3554   78.1310  -43.4541 C   0  0  0  0  0  0  0  0  0  0  0  0
  -34.7221   79.3700  -43.5778 C   0  0  0  0  0  0  0  0  0  0  0  0
  -34.9380   80.2019  -44.7384 C   0  0  0  0  0  0  0  0  0  0  0  0
  -35.8558   79.9326  -45.7531 C   0  0  0  0  0  0  0  0  0  0  0  0
  -33.9207   81.4267  -44.0231 S   0  0  0  0  0  0  0  0  0  0  0  0
  -32.6191   81.5304  -44.7054 O   0  0  0  0  0  0  0  0  0  0  0  0
  -34.7203   82.5924  -43.6084 O   0  0  0  0  0  0  0  0  0  0  0  0
  -33.9222   80.2330  -42.8167 N   0  0  0  0  0  0  0  0  0  0  0  0
  -41.2919   79.0431  -45.7975 C   0  0  0  0  0  0  0  0  0  0  0  0
  -42.6007   79.2490  -46.5710 C   0  0  0  0  0  0  0  0  0  0  0  0
  -43.5367   78.0673  -46.8798 C   0  0  0  0  0  0  0  0  0  0  0  0
  -44.7208   79.0203  -46.6901 C   0  0  0  0  0  0  0  0  0  0  0  0
  -43.7913   79.8895  -45.8449 C   0  0  0  0  0  0  0  0  0  0  0  0
  1  2  2  0
  2  3  1  0
  2 15  1  0
  3  4  1  0
  4  5  1  0
  5  6  2  0
  5 10  1  0
  6  7  1  0
  7  8  2  0
  8  9  1  0
  8 14  1  0
  9 10  2  0
  9 11  1  0
 11 12  2  0
 11 13  2  0
 11 14  1  0
 15 16  1  0
 16 17  1  0
 16 19  1  0
 17 18  1  0
 18 19  1  0
M  CHG  1  14  -1
M  END
>  <cluster>  (82) 
cluster_26029

>  <glide_score>  (82) 
-6.86159729829377

>  <mmgbsa_dG>  (82) 
-44.7285700021675

$$$$
No_4483
     RDKit          3D

 20 22  0  0  1  0  0  0  0  0999 V2000
  -36.6214   75.9903  -42.6540 C   0  0  0  0  0  0  0  0  0  0  0  0
  -36.0022   76.8116  -43.7969 C   0  0  0  0  0  0  0  0  0  0  0  0
  -35.0346   77.8825  -43.2595 C   0  0  0  0  0  0  0  0  0  0  0  0
  -37.0561   77.4037  -44.6241 N   0  0  0  0  0  0  0  0  0  0  0  0
  -36.8801   77.8503  -45.8814 C   0  0  0  0  0  0  0  0  0  0  0  0
  -35.7776   77.8721  -46.4279 O   0  0  0  0  0  0  0  0  0  0  0  0
  -38.0822   78.2889  -46.6300 C   0  0  0  0  0  0  0  0  0  0  0  0
  -39.3116   78.4404  -46.0077 N   0  0  0  0  0  0  0  0  0  0  0  0
  -40.2325   78.7984  -46.9067 C   0  0  0  0  0  0  0  0  0  0  0  0
  -41.6463   78.9503  -46.5729 C   0  0  0  0  0  0  0  0  0  0  0  0
  -42.2218   79.0180  -45.3362 C   0  0  0  0  0  0  0  0  0  0  0  0
  -43.6246   79.1527  -45.5008 C   0  0  0  0  0  0  0  0  0  0  0  0
  -43.8759   79.1475  -46.8406 C   0  0  0  0  0  0  0  0  0  0  0  0
  -42.6727   79.0251  -47.5152 N   0  0  0  0  0  0  0  0  0  0  0  0
  -42.5510   79.0013  -48.9600 C   0  0  0  0  0  0  0  0  0  0  0  0
  -39.6728   78.9410  -48.1073 N   0  0  0  0  0  0  0  0  0  0  0  0
  -38.3279   78.6022  -47.9493 C   0  0  0  0  0  0  0  0  0  0  0  0
  -37.3984   78.6223  -49.1259 C   0  0  0  0  0  0  0  0  0  0  0  0
  -36.5412   77.4200  -49.4639 C   0  0  0  0  0  0  0  0  0  0  0  0
  -37.7038   77.7856  -50.3513 C   0  0  0  0  0  0  0  0  0  0  0  0
  1  2  1  0
  2  3  1  0
  2  4  1  0
  4  5  1  0
  5  6  2  0
  5  7  1  0
  7  8  1  0
  7 17  2  0
  8  9  1  0
  9 10  1  0
  9 16  2  0
 10 11  2  0
 10 14  1  0
 11 12  1  0
 12 13  2  0
 13 14  1  0
 14 15  1  0
 16 17  1  0
 17 18  1  0
 18 19  1  0
 18 20  1  0
 19 20  1  0
M  END
>  <cluster>  (83) 
cluster_67795

>  <glide_score>  (83) 
-6.55216533565652

>  <mmgbsa_dG>  (83) 
-44.6880584472747

$$$$
No_9
     RDKit          3D

 22 24  0  0  1  0  0  0  0  0999 V2000
  -33.4202   81.5448  -45.6146 C   0  0  0  0  0  0  0  0  0  0  0  0
  -35.0886   80.7991  -45.7355 S   0  0  0  0  0  0  0  0  0  0  0  0
  -35.5221   80.4255  -44.3800 O   0  0  0  0  0  0  0  0  0  0  0  0
  -35.9221   81.6797  -46.5694 O   0  0  0  0  0  0  0  0  0  0  0  0
  -34.7587   79.3539  -46.6310 N   0  0  0  0  0  0  0  0  0  0  0  0
  -34.9677   79.2989  -48.0882 C   0  0  0  0  0  0  0  0  0  0  0  0
  -36.4589   79.1675  -48.4543 C   0  0  0  0  0  0  0  0  0  0  0  0
  -37.2118   78.3130  -47.5401 N   0  0  0  0  0  0  0  0  0  0  0  0
  -38.6106   78.4247  -47.5885 C   0  0  0  0  0  0  0  0  0  0  0  0
  -39.2101   78.2434  -48.7896 N   0  0  0  0  0  0  0  0  0  0  0  0
  -40.5388   78.3394  -48.9073 N   0  0  0  0  0  0  0  0  0  0  0  0
  -41.3043   78.6054  -47.8239 C   0  0  0  0  0  0  0  0  0  0  0  0
  -40.7557   78.8160  -46.5377 C   0  0  0  0  0  0  0  0  0  0  0  0
  -39.3501   78.7423  -46.4246 C   0  0  0  0  0  0  0  0  0  0  0  0
  -38.7027   79.0050  -45.2163 N   0  0  0  0  0  0  0  0  0  0  0  0
  -41.6446   79.0956  -45.3292 C   0  0  0  0  0  0  0  0  0  0  0  0
  -43.0913   79.4678  -45.6847 C   0  0  0  0  0  0  0  0  0  0  0  0
  -43.6448   78.5857  -46.8059 C   0  0  0  0  0  0  0  0  0  0  0  0
  -42.7984   78.7069  -48.0815 C   0  0  0  0  0  0  0  0  0  0  0  0
  -36.6575   77.0563  -47.0407 C   0  0  0  0  0  0  0  0  0  0  0  0
  -35.8152   77.2642  -45.7634 C   0  0  0  0  0  0  0  0  0  0  0  0
  -34.5135   78.0639  -45.9633 C   0  0  0  0  0  0  0  0  0  0  0  0
  1  2  1  0
  2  3  2  0
  2  4  2  0
  2  5  1  0
  5  6  1  0
  5 22  1  0
  6  7  1  0
  7  8  1  0
  8 20  1  0
  8  9  1  0
  9 14  1  0
  9 10  2  0
 10 11  1  0
 11 12  2  0
 12 19  1  0
 12 13  1  0
 13 14  2  0
 13 16  1  0
 14 15  1  0
 16 17  1  0
 17 18  1  0
 18 19  1  0
 20 21  1  0
 21 22  1  0
M  END
>  <cluster>  (84) 
cluster_15837

>  <glide_score>  (84) 
-6.71240309744263

>  <mmgbsa_dG>  (84) 
-44.6241268135418

$$$$
No_3540
     RDKit          3D

 21 23  0  0  1  0  0  0  0  0999 V2000
  -36.1703   76.6027  -44.0350 N   0  0  0  0  0  0  0  0  0  0  0  0
  -35.8239   77.6412  -44.8002 C   0  0  0  0  0  0  0  0  0  0  0  0
  -35.5053   78.7100  -44.2849 O   0  0  0  0  0  0  0  0  0  0  0  0
  -35.8220   77.5145  -46.3418 C   0  0  1  0  0  0  0  0  0  0  0  0
  -35.9226   76.1084  -46.8542 N   0  0  1  0  0  0  0  0  0  0  0  0
  -36.3402   75.9612  -48.2771 C   0  0  0  0  0  0  0  0  0  0  0  0
  -35.9080   74.5737  -48.7364 C   0  0  0  0  0  0  0  0  0  0  0  0
  -34.7424   74.2980  -47.8182 C   0  0  0  0  0  0  0  0  0  0  0  0
  -33.9246   73.4025  -48.0054 O   0  0  0  0  0  0  0  0  0  0  0  0
  -34.6827   75.3066  -46.6774 C   0  0  0  0  0  0  0  0  0  0  0  0
  -36.8783   78.4792  -46.9466 C   0  0  0  0  0  0  0  0  0  0  0  0
  -38.3382   78.1608  -46.5839 C   0  0  0  0  0  0  0  0  0  0  0  0
  -39.2460   79.0009  -47.3407 N   0  0  0  0  0  0  0  0  0  0  0  0
  -39.7703   78.5852  -48.7005 C   0  0  0  0  0  0  0  0  0  0  0  0
  -41.1385   78.6026  -48.1302 C   0  0  0  0  0  0  0  0  0  0  0  0
  -42.4974   78.4348  -48.3797 C   0  0  0  0  0  0  0  0  0  0  0  0
  -43.3082   78.6746  -47.2364 C   0  0  0  0  0  0  0  0  0  0  0  0
  -42.7569   79.0381  -45.9622 C   0  0  0  0  0  0  0  0  0  0  0  0
  -43.6985   79.4173  -44.8461 C   0  0  0  0  0  0  0  0  0  0  0  0
  -41.3540   79.1508  -45.7393 C   0  0  0  0  0  0  0  0  0  0  0  0
  -40.5761   78.9618  -46.8814 C   0  0  0  0  0  0  0  0  0  0  0  0
  1  2  1  0
  2  3  2  0
  2  4  1  0
  4  5  1  0
  4 11  1  6
  5  6  1  6
  5 10  1  0
  6  7  1  0
  7  8  1  0
  8  9  2  0
  8 10  1  0
 11 12  1  0
 12 13  1  0
 13 14  1  0
 13 21  1  0
 14 15  1  0
 15 16  2  0
 15 21  1  0
 16 17  1  0
 17 18  2  0
 18 19  1  0
 18 20  1  0
 20 21  2  0
M  CHG  1   5   1
M  END
>  <cluster>  (85) 
cluster_66852

>  <glide_score>  (85) 
-6.69648413898585

>  <mmgbsa_dG>  (85) 
-44.5256897392828

$$$$
No_1194
     RDKit          3D

 23 26  0  0  1  0  0  0  0  0999 V2000
  -35.1223   78.9345  -43.6011 O   0  0  0  0  0  0  0  0  0  0  0  0
  -35.6779   78.0570  -44.2611 C   0  0  0  0  0  0  0  0  0  0  0  0
  -36.0024   76.7261  -43.5678 C   0  0  0  0  0  0  0  0  0  0  0  0
  -34.7747   75.8006  -43.5218 C   0  0  0  0  0  0  0  0  0  0  0  0
  -35.1222   74.3980  -43.2075 N   0  0  2  0  0  0  0  0  0  0  0  0
  -35.8836   74.1590  -41.9814 C   0  0  0  0  0  0  0  0  0  0  0  0
  -35.4840   72.7359  -41.5717 C   0  0  0  0  0  0  0  0  0  0  0  0
  -34.5095   72.2983  -42.5216 O   0  0  0  0  0  0  0  0  0  0  0  0
  -33.9075   73.4110  -43.0891 C   0  0  0  0  0  0  0  0  0  0  0  0
  -36.0480   78.2598  -45.5450 N   0  0  0  0  0  0  0  0  0  0  0  0
  -36.5949   77.2692  -46.4762 C   0  0  0  0  0  0  0  0  0  0  0  0
  -37.1731   78.0782  -47.6446 C   0  0  1  0  0  0  0  0  0  0  0  0
  -38.6391   78.3567  -47.4746 C   0  0  0  0  0  0  0  0  0  0  0  0
  -39.5644   78.3032  -48.4434 N   0  0  0  0  0  0  0  0  0  0  0  0
  -40.7392   78.6027  -47.7779 C   0  0  0  0  0  0  0  0  0  0  0  0
  -42.0872   78.6732  -48.1979 C   0  0  0  0  0  0  0  0  0  0  0  0
  -43.0997   79.0033  -47.2678 C   0  0  0  0  0  0  0  0  0  0  0  0
  -42.7809   79.2593  -45.9155 C   0  0  0  0  0  0  0  0  0  0  0  0
  -41.4398   79.1985  -45.4834 C   0  0  0  0  0  0  0  0  0  0  0  0
  -40.4511   78.8725  -46.4232 C   0  0  0  0  0  0  0  0  0  0  0  0
  -39.0878   78.7496  -46.2401 O   0  0  0  0  0  0  0  0  0  0  0  0
  -36.3211   79.3433  -47.6592 C   0  0  0  0  0  0  0  0  0  0  0  0
  -35.9383   79.5664  -46.1955 C   0  0  0  0  0  0  0  0  0  0  0  0
  1  2  2  0
  2  3  1  0
  2 10  1  0
  3  4  1  0
  5  4  1  1
  5  6  1  0
  5  9  1  0
  6  7  1  0
  7  8  1  0
  8  9  1  0
 10 11  1  0
 10 23  1  0
 11 12  1  0
 12 13  1  1
 12 22  1  0
 13 14  2  0
 13 21  1  0
 14 15  1  0
 15 16  2  0
 15 20  1  0
 16 17  1  0
 17 18  2  0
 18 19  1  0
 19 20  2  0
 20 21  1  0
 22 23  1  0
M  CHG  1   5   1
M  END
>  <cluster>  (86) 
cluster_27574

>  <glide_score>  (86) 
-6.67309407909794

>  <mmgbsa_dG>  (86) 
-44.4769622966705

$$$$
No_211
     RDKit          3D

 26 29  0  0  1  0  0  0  0  0999 V2000
  -35.9433   78.8301  -44.4210 O   0  0  0  0  0  0  0  0  0  0  0  0
  -36.1671   77.7315  -44.9349 C   0  0  0  0  0  0  0  0  0  0  0  0
  -36.1669   76.6028  -44.2078 N   0  0  0  0  0  0  0  0  0  0  0  0
  -35.7726   76.5363  -42.8076 C   0  0  0  0  0  0  0  0  0  0  0  0
  -36.1221   75.1943  -42.1256 C   0  0  0  0  0  0  0  0  0  0  0  0
  -35.5153   74.0020  -42.7639 N   0  0  1  0  0  0  0  0  0  0  0  0
  -34.0984   74.0794  -43.1260 C   0  0  0  0  0  0  0  0  0  0  0  0
  -33.6901   72.6099  -43.2558 C   0  0  0  0  0  0  0  0  0  0  0  0
  -34.7223   71.8463  -42.6289 O   0  0  0  0  0  0  0  0  0  0  0  0
  -35.5482   72.6937  -41.8950 C   0  0  0  0  0  0  0  0  0  0  0  0
  -36.4801   77.5571  -46.2433 N   0  0  0  0  0  0  0  0  0  0  0  0
  -36.5635   76.2743  -46.8964 C   0  0  0  0  0  0  0  0  0  0  0  0
  -35.8170   76.0308  -48.1922 C   0  0  0  0  0  0  0  0  0  0  0  0
  -35.3494   75.3658  -46.9239 C   0  0  0  0  0  0  0  0  0  0  0  0
  -36.9589   78.6812  -47.0678 C   0  0  0  0  0  0  0  0  0  0  0  0
  -38.4639   78.6556  -47.3012 C   0  0  0  0  0  0  0  0  0  0  0  0
  -38.9872   78.6022  -48.6068 C   0  0  0  0  0  0  0  0  0  0  0  0
  -40.3811   78.5758  -48.8083 C   0  0  0  0  0  0  0  0  0  0  0  0
  -41.2748   78.6017  -47.7153 C   0  0  0  0  0  0  0  0  0  0  0  0
  -40.7473   78.6659  -46.3949 C   0  0  0  0  0  0  0  0  0  0  0  0
  -39.3503   78.6961  -46.2097 C   0  0  0  0  0  0  0  0  0  0  0  0
  -41.5226   78.6031  -45.2282 N   0  0  0  0  0  0  0  0  0  0  0  0
  -42.6839   79.4563  -45.0630 C   0  0  0  0  0  0  0  0  0  0  0  0
  -43.8259   79.0548  -45.9836 C   0  0  0  0  0  0  0  0  0  0  0  0
  -43.5047   79.4006  -47.4312 C   0  0  0  0  0  0  0  0  0  0  0  0
  -42.6108   78.4681  -48.0180 O   0  0  0  0  0  0  0  0  0  0  0  0
  1  2  2  0
  2  3  1  0
  2 11  1  0
  3  4  1  0
  4  5  1  0
  6  5  1  1
  6  7  1  0
  6 10  1  0
  7  8  1  0
  8  9  1  0
  9 10  1  0
 11 12  1  0
 11 15  1  0
 12 13  1  0
 12 14  1  0
 13 14  1  0
 15 16  1  0
 16 17  2  0
 16 21  1  0
 17 18  1  0
 18 19  2  0
 19 20  1  0
 19 26  1  0
 20 21  2  0
 20 22  1  0
 22 23  1  0
 23 24  1  0
 24 25  1  0
 25 26  1  0
M  CHG  1   6   1
M  END
>  <cluster>  (87) 
cluster_111007

>  <glide_score>  (87) 
-7.35656255337171

>  <mmgbsa_dG>  (87) 
-44.3339320047089

$$$$
No_2475
     RDKit          3D

 19 21  0  0  1  0  0  0  0  0999 V2000
  -36.4570   75.9622  -42.4077 C   0  0  0  0  0  0  0  0  0  0  0  0
  -35.6318   77.1277  -42.9681 C   0  0  0  0  0  0  0  0  0  0  0  0
  -35.8594   77.3770  -44.4228 C   0  0  0  0  0  0  0  0  0  0  0  0
  -35.0448   77.3273  -45.5186 C   0  0  0  0  0  0  0  0  0  0  0  0
  -35.8574   77.6620  -46.6356 C   0  0  0  0  0  0  0  0  0  0  0  0
  -37.1128   77.8919  -46.1464 C   0  0  0  0  0  0  0  0  0  0  0  0
  -38.3691   78.2206  -46.7826 C   0  0  0  0  0  0  0  0  0  0  0  0
  -38.6707   78.3560  -48.1185 C   0  0  0  0  0  0  0  0  0  0  0  0
  -40.0343   78.6027  -48.2724 N   0  0  0  0  0  0  0  0  0  0  0  0
  -40.5184   78.6027  -47.0353 C   0  0  0  0  0  0  0  0  0  0  0  0
  -41.8617   78.7410  -46.6968 N   0  0  0  0  0  0  0  0  0  0  0  0
  -42.9578   78.8167  -47.6627 C   0  0  0  0  0  0  0  0  0  0  0  0
  -44.2738   78.8223  -46.8891 C   0  0  0  0  0  0  0  0  0  0  0  0
  -43.8478   79.4797  -45.5969 C   0  0  1  0  0  0  0  0  0  0  0  0
  -44.8065   79.4039  -44.4818 C   0  0  0  0  0  0  0  0  0  0  0  0
  -45.5670   79.4026  -43.6077 N   0  0  0  0  0  0  0  0  0  0  0  0
  -42.4569   78.8980  -45.3700 C   0  0  0  0  0  0  0  0  0  0  0  0
  -39.5671   78.4214  -46.1111 N   0  0  0  0  0  0  0  0  0  0  0  0
  -37.1222   77.7382  -44.7923 O   0  0  0  0  0  0  0  0  0  0  0  0
  1  2  1  0
  2  3  1  0
  3  4  2  0
  3 19  1  0
  4  5  1  0
  5  6  2  0
  6 19  1  0
  6  7  1  0
  7 18  1  0
  7  8  2  0
  8  9  1  0
  9 10  2  0
 10 11  1  0
 10 18  1  0
 11 12  1  0
 11 17  1  0
 12 13  1  0
 13 14  1  0
 14 15  1  1
 14 17  1  0
 15 16  3  0
M  END
>  <cluster>  (88) 
cluster_23579

>  <glide_score>  (88) 
-6.66984149513419

>  <mmgbsa_dG>  (88) 
-44.1983201024341

$$$$
No_3760
     RDKit          3D

 23 25  0  0  1  0  0  0  0  0999 V2000
  -44.3221   79.4386  -46.0868 C   0  0  0  0  0  0  0  0  0  0  0  0
  -42.9286   79.1205  -46.4926 C   0  0  0  0  0  0  0  0  0  0  0  0
  -42.5763   78.8886  -47.7516 N   0  0  0  0  0  0  0  0  0  0  0  0
  -41.2208   78.5892  -47.8966 C   0  0  0  0  0  0  0  0  0  0  0  0
  -40.7713   78.2176  -49.2795 C   0  0  0  0  0  0  0  0  0  0  0  0
  -40.5135   78.6026  -46.7014 C   0  0  0  0  0  0  0  0  0  0  0  0
  -39.2210   78.2814  -46.4077 N   0  0  0  0  0  0  0  0  0  0  0  0
  -38.1348   78.4283  -47.1900 C   0  0  0  0  0  0  0  0  0  0  0  0
  -38.1919   79.0028  -48.2753 O   0  0  0  0  0  0  0  0  0  0  0  0
  -36.9785   77.8737  -46.7316 N   0  0  0  0  0  0  0  0  0  0  0  0
  -35.8119   77.8890  -47.6389 C   0  0  0  0  0  0  0  0  0  0  0  0
  -34.7864   76.7973  -47.3239 C   0  0  0  0  0  0  0  0  0  0  0  0
  -34.3874   76.8577  -45.8558 C   0  0  0  0  0  0  0  0  0  0  0  0
  -35.5779   76.6024  -45.0143 N   0  0  1  0  0  0  0  0  0  0  0  0
  -35.2354   76.4771  -43.5708 C   0  0  0  0  0  0  0  0  0  0  0  0
  -35.1222   75.0263  -43.1130 C   0  0  0  0  0  0  0  0  0  0  0  0
  -34.3222   74.0577  -43.7646 C   0  0  0  0  0  0  0  0  0  0  0  0
  -34.2795   72.7590  -43.3888 N   0  0  0  0  0  0  0  0  0  0  0  0
  -34.9891   72.3461  -42.3333 N   0  0  0  0  0  0  0  0  0  0  0  0
  -35.7562   73.2259  -41.6475 C   0  0  0  0  0  0  0  0  0  0  0  0
  -35.8708   74.5790  -42.0078 C   0  0  0  0  0  0  0  0  0  0  0  0
  -36.6763   77.5676  -45.3117 C   0  0  0  0  0  0  0  0  0  0  0  0
  -41.5842   79.0027  -45.3783 S   0  0  0  0  0  0  0  0  0  0  0  0
  1  2  1  0
  2  3  2  0
  2 23  1  0
  3  4  1  0
  4  5  1  0
  4  6  2  0
  6  7  1  0
  6 23  1  0
  7  8  1  0
  8  9  2  0
  8 10  1  0
 10 11  1  0
 10 22  1  0
 11 12  1  0
 12 13  1  0
 13 14  1  0
 14 15  1  1
 14 22  1  0
 15 16  1  0
 16 17  2  0
 16 21  1  0
 17 18  1  0
 18 19  2  0
 19 20  1  0
 20 21  2  0
M  CHG  1  14   1
M  END
>  <cluster>  (89) 
cluster_14312

>  <glide_score>  (89) 
-6.89740829442291

>  <mmgbsa_dG>  (89) 
-44.1799586053385

$$$$
No_1609
     RDKit          3D

 22 24  0  0  1  0  0  0  0  0999 V2000
  -39.5227   78.8379  -48.0315 O   0  0  0  0  0  0  0  0  0  0  0  0
  -39.8724   79.0025  -46.8630 C   0  0  0  0  0  0  0  0  0  0  0  0
  -38.8321   79.4543  -45.8116 C   0  0  0  0  0  0  0  0  0  0  0  0
  -37.3447   79.3785  -46.2612 C   0  0  0  0  0  0  0  0  0  0  0  0
  -36.6989   78.1027  -45.9023 N   0  0  0  0  0  0  0  0  0  0  0  0
  -36.9033   77.0249  -46.8801 C   0  0  0  0  0  0  0  0  0  0  0  0
  -35.9002   77.9906  -44.8035 C   0  0  0  0  0  0  0  0  0  0  0  0
  -35.5723   78.9496  -44.0991 O   0  0  0  0  0  0  0  0  0  0  0  0
  -35.4598   76.6176  -44.3753 C   0  0  0  0  0  0  0  0  0  0  0  0
  -34.6759   75.8010  -45.2248 C   0  0  0  0  0  0  0  0  0  0  0  0
  -34.3220   74.4895  -44.8447 C   0  0  0  0  0  0  0  0  0  0  0  0
  -34.7192   73.9746  -43.5920 C   0  0  0  0  0  0  0  0  0  0  0  0
  -34.5054   72.7224  -43.0314 N   0  0  0  0  0  0  0  0  0  0  0  0
  -35.1087   72.8568  -41.8512 C   0  0  0  0  0  0  0  0  0  0  0  0
  -35.6914   74.0417  -41.6077 N   0  0  0  0  0  0  0  0  0  0  0  0
  -35.4651   74.8288  -42.7242 C   0  0  0  0  0  0  0  0  0  0  0  0
  -35.8200   76.1400  -43.0945 C   0  0  0  0  0  0  0  0  0  0  0  0
  -41.1654   78.8735  -46.5017 N   0  0  0  0  0  0  0  0  0  0  0  0
  -41.7118   79.1384  -45.1786 C   0  0  0  0  0  0  0  0  0  0  0  0
  -43.1780   78.7126  -45.2289 C   0  0  0  0  0  0  0  0  0  0  0  0
  -43.5452   78.8253  -46.7016 C   0  0  0  0  0  0  0  0  0  0  0  0
  -42.2365   78.5251  -47.4349 C   0  0  0  0  0  0  0  0  0  0  0  0
  1  2  2  0
  2  3  1  0
  2 18  1  0
  3  4  1  0
  4  5  1  0
  5  6  1  0
  5  7  1  0
  7  8  2  0
  7  9  1  0
  9 10  2  0
  9 17  1  0
 10 11  1  0
 11 12  2  0
 12 13  1  0
 12 16  1  0
 13 14  2  0
 14 15  1  0
 15 16  1  0
 16 17  2  0
 18 19  1  0
 18 22  1  0
 19 20  1  0
 20 21  1  0
 21 22  1  0
M  END
>  <cluster>  (90) 
cluster_54369

>  <glide_score>  (90) 
-6.61447327820693

>  <mmgbsa_dG>  (90) 
-44.1788282376219

$$$$
No_611
     RDKit          3D

 22 25  0  0  1  0  0  0  0  0999 V2000
  -32.7065   80.6029  -42.6021 N   0  0  0  0  0  0  0  0  0  0  0  0
  -33.7424   80.8431  -43.4048 C   0  0  0  0  0  0  0  0  0  0  0  0
  -34.3221   81.9269  -43.3765 O   0  0  0  0  0  0  0  0  0  0  0  0
  -34.1966   79.7230  -44.3593 C   0  0  2  0  0  0  0  0  0  0  0  0
  -35.0096   80.3140  -45.5417 C   0  0  0  0  0  0  0  0  0  0  0  0
  -35.5565   79.2995  -46.5584 C   0  0  0  0  0  0  0  0  0  0  0  0
  -36.6955   78.5741  -46.0027 N   0  0  0  0  0  0  0  0  0  0  0  0
  -37.9072   78.6033  -46.7146 C   0  0  0  0  0  0  0  0  0  0  0  0
  -37.9367   78.4113  -48.1246 C   0  0  0  0  0  0  0  0  0  0  0  0
  -39.1543   78.4140  -48.8454 C   0  0  0  0  0  0  0  0  0  0  0  0
  -40.3476   78.6027  -48.1297 C   0  0  0  0  0  0  0  0  0  0  0  0
  -40.3161   78.7878  -46.7410 C   0  0  0  0  0  0  0  0  0  0  0  0
  -39.1188   78.8041  -46.0087 C   0  0  0  0  0  0  0  0  0  0  0  0
  -41.6847   78.9299  -46.3331 C   0  0  0  0  0  0  0  0  0  0  0  0
  -42.3598   79.0865  -45.2080 N   0  0  0  0  0  0  0  0  0  0  0  0
  -43.6335   79.1122  -45.7336 C   0  0  0  0  0  0  0  0  0  0  0  0
  -43.7395   78.9378  -47.0596 N   0  0  0  0  0  0  0  0  0  0  0  0
  -42.4429   78.8318  -47.3967 N   0  0  0  0  0  0  0  0  0  0  0  0
  -41.7824   78.6162  -48.6667 C   0  0  0  0  0  0  0  0  0  0  0  0
  -36.4960   77.3642  -45.2093 C   0  0  0  0  0  0  0  0  0  0  0  0
  -35.1886   77.3475  -44.3937 C   0  0  0  0  0  0  0  0  0  0  0  0
  -34.9568   78.6268  -43.5753 C   0  0  0  0  0  0  0  0  0  0  0  0
  1  2  1  0
  2  3  2  0
  4  2  1  1
  4  5  1  0
  4 22  1  0
  5  6  1  0
  6  7  1  0
  7  8  1  0
  7 20  1  0
  8  9  2  0
  8 13  1  0
  9 10  1  0
 10 11  2  0
 11 12  1  0
 11 19  1  0
 12 13  2  0
 12 14  1  0
 14 15  2  0
 14 18  1  0
 15 16  1  0
 16 17  2  0
 17 18  1  0
 18 19  1  0
 20 21  1  0
 21 22  1  0
M  END
>  <cluster>  (91) 
cluster_16439

>  <glide_score>  (91) 
-6.69222237993875

>  <mmgbsa_dG>  (91) 
-44.163677038523

$$$$
No_1837
     RDKit          3D

 26 28  0  0  1  0  0  0  0  0999 V2000
  -34.3246   79.3987  -42.7294 O   0  0  0  0  0  0  0  0  0  0  0  0
  -34.6912   78.2060  -43.3906 C   0  0  0  0  0  0  0  0  0  0  0  0
  -34.1265   78.2016  -44.8203 C   0  0  0  0  0  0  0  0  0  0  0  0
  -34.3610   76.8561  -45.5375 C   0  0  0  0  0  0  0  0  0  0  0  0
  -33.7761   76.7836  -46.9744 C   0  0  2  0  0  0  0  0  0  0  0  0
  -34.3504   77.8747  -47.9116 C   0  0  0  0  0  0  0  0  0  0  0  0
  -35.8024   77.9165  -47.8255 N   0  0  0  0  0  0  0  0  0  0  0  0
  -36.5884   78.7988  -48.4456 C   0  0  0  0  0  0  0  0  0  0  0  0
  -36.1905   79.5940  -49.2963 O   0  0  0  0  0  0  0  0  0  0  0  0
  -38.0270   78.7595  -48.0340 C   0  0  0  0  0  0  0  0  0  0  0  0
  -38.3820   78.6267  -46.6735 C   0  0  0  0  0  0  0  0  0  0  0  0
  -39.7277   78.6966  -46.2756 C   0  0  0  0  0  0  0  0  0  0  0  0
  -40.7499   78.8700  -47.2367 C   0  0  0  0  0  0  0  0  0  0  0  0
  -42.1158   78.9468  -46.8304 N   0  0  0  0  0  0  0  0  0  0  0  0
  -42.5367   79.5407  -45.5686 C   0  0  0  0  0  0  0  0  0  0  0  0
  -44.0461   79.3097  -45.4715 C   0  0  0  0  0  0  0  0  0  0  0  0
  -44.4808   78.8026  -46.8423 C   0  0  0  0  0  0  0  0  0  0  0  0
  -43.1658   78.4717  -47.5182 C   0  0  0  0  0  0  0  0  0  0  0  0
  -43.1173   77.8061  -48.5494 O   0  0  0  0  0  0  0  0  0  0  0  0
  -40.3888   79.0019  -48.6004 C   0  0  0  0  0  0  0  0  0  0  0  0
  -39.0402   78.9542  -48.9958 C   0  0  0  0  0  0  0  0  0  0  0  0
  -34.0619   75.4615  -47.5486 N   0  0  0  0  0  0  0  0  0  0  0  0
  -33.4267   75.1830  -48.8503 C   0  0  0  0  0  0  0  0  0  0  0  0
  -33.2735   73.7552  -48.3168 C   0  0  0  0  0  0  0  0  0  0  0  0
  -33.1226   72.6339  -48.8067 O   0  0  0  0  0  0  0  0  0  0  0  0
  -33.3978   74.3232  -46.8938 C   0  0  0  0  0  0  0  0  0  0  0  0
  1  2  1  0
  2  3  1  0
  3  4  1  0
  5  4  1  1
  5  6  1  0
  5 22  1  0
  6  7  1  0
  7  8  1  0
  8  9  2  0
  8 10  1  0
 10 11  2  0
 10 21  1  0
 11 12  1  0
 12 13  2  0
 13 14  1  0
 13 20  1  0
 14 15  1  0
 14 18  1  0
 15 16  1  0
 16 17  1  0
 17 18  1  0
 18 19  2  0
 20 21  2  0
 22 23  1  0
 22 26  1  0
 23 24  1  0
 24 25  2  0
 24 26  1  0
M  END
>  <cluster>  (92) 
cluster_75701

>  <glide_score>  (92) 
-6.54410734068416

>  <mmgbsa_dG>  (92) 
-44.0490812140924

$$$$
No_4149
     RDKit          3D

 24 26  0  0  1  0  0  0  0  0999 V2000
  -35.4456   73.2628  -41.5737 C   0  0  0  0  0  0  0  0  0  0  0  0
  -35.4329   74.5355  -42.1981 O   0  0  0  0  0  0  0  0  0  0  0  0
  -36.7041   75.1617  -42.2279 C   0  0  0  0  0  0  0  0  0  0  0  0
  -36.5977   76.5801  -42.8208 C   0  0  0  0  0  0  0  0  0  0  0  0
  -36.2068   76.6026  -44.2571 N   0  0  1  0  0  0  0  0  0  0  0  0
  -36.8337   77.7048  -45.0403 C   0  0  0  0  0  0  0  0  0  0  0  0
  -36.4387   77.6504  -46.5394 C   0  0  1  0  0  0  0  0  0  0  0  0
  -37.0178   78.8307  -47.3467 C   0  0  0  0  0  0  0  0  0  0  0  0
  -38.3290   78.5001  -48.0295 C   0  0  0  0  0  0  0  0  0  0  0  0
  -39.5051   78.7685  -47.3247 N   0  0  0  0  0  0  0  0  0  0  0  0
  -40.6714   78.6027  -47.8720 C   0  0  0  0  0  0  0  0  0  0  0  0
  -41.9243   78.8663  -47.1096 C   0  0  0  0  0  0  0  0  0  0  0  0
  -41.9048   79.0025  -45.7012 C   0  0  0  0  0  0  0  0  0  0  0  0
  -43.0999   79.2715  -45.0072 C   0  0  0  0  0  0  0  0  0  0  0  0
  -44.3089   79.4025  -45.6981 C   0  0  0  0  0  0  0  0  0  0  0  0
  -44.3264   79.2744  -47.0919 C   0  0  0  0  0  0  0  0  0  0  0  0
  -43.1461   79.0043  -47.8015 C   0  0  0  0  0  0  0  0  0  0  0  0
  -40.7261   78.1437  -49.1985 N   0  0  0  0  0  0  0  0  0  0  0  0
  -39.6588   77.7913  -49.9440 C   0  0  0  0  0  0  0  0  0  0  0  0
  -39.7983   77.3133  -51.0665 O   0  0  0  0  0  0  0  0  0  0  0  0
  -38.3738   78.0257  -49.2958 C   0  0  0  0  0  0  0  0  0  0  0  0
  -34.9096   77.6102  -46.6983 C   0  0  0  0  0  0  0  0  0  0  0  0
  -34.3233   76.4532  -45.8920 C   0  0  0  0  0  0  0  0  0  0  0  0
  -34.7315   76.5793  -44.4214 C   0  0  0  0  0  0  0  0  0  0  0  0
  1  2  1  0
  2  3  1  0
  3  4  1  0
  5  4  1  1
  5  6  1  0
  5 24  1  0
  6  7  1  0
  7  8  1  6
  7 22  1  0
  8  9  1  0
  9 10  1  0
  9 21  2  0
 10 11  2  0
 11 12  1  0
 11 18  1  0
 12 13  2  0
 12 17  1  0
 13 14  1  0
 14 15  2  0
 15 16  1  0
 16 17  2  0
 18 19  1  0
 19 20  2  0
 19 21  1  0
 22 23  1  0
 23 24  1  0
M  CHG  1   5   1
M  END
>  <cluster>  (93) 
cluster_109669

>  <glide_score>  (93) 
-6.50399588863183

>  <mmgbsa_dG>  (93) 
-44.0358422117424

$$$$
No_3785
     RDKit          3D

 24 27  0  0  1  0  0  0  0  0999 V2000
  -39.6957   79.4777  -45.2072 C   0  0  0  0  0  0  0  0  0  0  0  0
  -40.9806   79.1681  -45.9630 C   0  0  0  0  0  0  0  0  0  0  0  0
  -42.1747   79.3935  -45.2393 C   0  0  0  0  0  0  0  0  0  0  0  0
  -43.4317   79.1964  -45.8250 C   0  0  0  0  0  0  0  0  0  0  0  0
  -44.5586   79.4026  -45.1053 F   0  0  0  0  0  0  0  0  0  0  0  0
  -43.5109   78.8069  -47.1662 C   0  0  0  0  0  0  0  0  0  0  0  0
  -42.3347   78.6073  -47.9097 C   0  0  0  0  0  0  0  0  0  0  0  0
  -41.0404   78.7561  -47.3372 C   0  0  0  0  0  0  0  0  0  0  0  0
  -39.9051   78.5356  -48.1696 N   0  0  0  0  0  0  0  0  0  0  0  0
  -40.0684   77.8059  -49.4287 C   0  0  0  0  0  0  0  0  0  0  0  0
  -38.7025   77.2153  -49.8156 C   0  0  2  0  0  0  0  0  0  0  0  0
  -38.5657   75.6839  -49.6985 C   0  0  0  0  0  0  0  0  0  0  0  0
  -37.3142   75.4999  -48.8515 C   0  0  0  0  0  0  0  0  0  0  0  0
  -36.8162   74.3981  -48.6274 O   0  0  0  0  0  0  0  0  0  0  0  0
  -36.8376   76.6819  -48.4425 N   0  0  0  0  0  0  0  0  0  0  0  0
  -35.5466   76.9231  -47.7977 C   0  0  0  0  0  0  0  0  0  0  0  0
  -35.7482   77.4194  -46.4014 C   0  0  0  0  0  0  0  0  0  0  0  0
  -35.6085   78.6932  -46.0196 N   0  0  0  0  0  0  0  0  0  0  0  0
  -35.8464   78.6991  -44.6550 N   0  0  0  0  0  0  0  0  0  0  0  0
  -36.1008   77.4275  -44.3350 C   0  0  0  0  0  0  0  0  0  0  0  0
  -36.3661   76.9256  -42.9575 C   0  0  0  0  0  0  0  0  0  0  0  0
  -36.0791   76.6027  -45.3899 N   0  0  0  0  0  0  0  0  0  0  0  0
  -37.7146   77.7862  -48.8029 C   0  0  2  0  0  0  0  0  0  0  0  0
  -38.5925   78.2229  -47.6303 C   0  0  0  0  0  0  0  0  0  0  0  0
  1  2  1  0
  2  3  2  0
  2  8  1  0
  3  4  1  0
  4  5  1  0
  4  6  2  0
  6  7  1  0
  7  8  2  0
  8  9  1  0
  9 10  1  0
  9 24  1  0
 11 10  1  1
 11 12  1  0
 11 23  1  0
 12 13  1  0
 13 14  2  0
 13 15  1  0
 15 16  1  0
 15 23  1  0
 16 17  1  0
 17 18  2  0
 17 22  1  0
 18 19  1  0
 19 20  2  0
 20 21  1  0
 20 22  1  0
 23 24  1  1
M  END
>  <cluster>  (94) 
cluster_125133

>  <glide_score>  (94) 
-6.5870457101589

>  <mmgbsa_dG>  (94) 
-44.0242418589405

$$$$
No_746
     RDKit          3D

 21 23  0  0  1  0  0  0  0  0999 V2000
  -32.7723   80.6033  -42.1457 N   0  0  0  0  0  0  0  0  0  0  0  0
  -33.6558   80.7719  -43.1268 C   0  0  0  0  0  0  0  0  0  0  0  0
  -34.3190   81.8028  -43.2077 O   0  0  0  0  0  0  0  0  0  0  0  0
  -33.8380   79.6184  -44.1296 C   0  0  2  0  0  0  0  0  0  0  0  0
  -34.2763   80.1125  -45.5376 C   0  0  0  0  0  0  0  0  0  0  0  0
  -35.6879   80.7280  -45.6804 C   0  0  0  0  0  0  0  0  0  0  0  0
  -36.7125   79.9003  -45.1544 O   0  0  0  0  0  0  0  0  0  0  0  0
  -36.9372   78.6955  -45.8745 C   0  0  2  0  0  0  0  0  0  0  0  0
  -38.3542   78.6763  -46.4237 C   0  0  0  0  0  0  0  0  0  0  0  0
  -38.6176   78.2857  -47.7505 C   0  0  0  0  0  0  0  0  0  0  0  0
  -39.8576   78.2836  -48.2831 N   0  0  0  0  0  0  0  0  0  0  0  0
  -40.9090   78.6176  -47.4993 C   0  0  0  0  0  0  0  0  0  0  0  0
  -42.2180   78.6027  -48.0268 C   0  0  0  0  0  0  0  0  0  0  0  0
  -43.3093   78.9500  -47.2082 C   0  0  0  0  0  0  0  0  0  0  0  0
  -43.0551   79.3063  -45.8722 C   0  0  0  0  0  0  0  0  0  0  0  0
  -41.8138   79.3283  -45.3465 N   0  0  0  0  0  0  0  0  0  0  0  0
  -40.7602   79.0027  -46.1315 C   0  0  0  0  0  0  0  0  0  0  0  0
  -39.4483   79.0473  -45.6149 C   0  0  0  0  0  0  0  0  0  0  0  0
  -36.6688   77.5173  -44.9218 C   0  0  0  0  0  0  0  0  0  0  0  0
  -35.2057   77.3833  -44.4460 C   0  0  0  0  0  0  0  0  0  0  0  0
  -34.7229   78.5092  -43.5031 C   0  0  0  0  0  0  0  0  0  0  0  0
  1  2  1  0
  2  3  2  0
  4  2  1  1
  4  5  1  0
  4 21  1  0
  5  6  1  0
  6  7  1  0
  7  8  1  0
  8  9  1  1
  8 19  1  0
  9 10  2  0
  9 18  1  0
 10 11  1  0
 11 12  2  0
 12 13  1  0
 12 17  1  0
 13 14  2  0
 14 15  1  0
 15 16  2  0
 16 17  1  0
 17 18  2  0
 19 20  1  0
 20 21  1  0
M  END
>  <cluster>  (95) 
cluster_48230

>  <glide_score>  (95) 
-6.8152533711174

>  <mmgbsa_dG>  (95) 
-44.0222998707468

$$$$
No_5033
     RDKit          3D

 23 26  0  0  1  0  0  0  0  0999 V2000
  -38.4124   78.9647  -45.9015 C   0  0  0  0  0  0  0  0  0  0  0  0
  -39.6136   78.7838  -46.8135 C   0  0  0  0  0  0  0  0  0  0  0  0
  -40.9047   78.7951  -46.2532 C   0  0  0  0  0  0  0  0  0  0  0  0
  -42.0217   78.6033  -47.0883 C   0  0  0  0  0  0  0  0  0  0  0  0
  -43.4047   78.5339  -46.5265 C   0  0  0  0  0  0  0  0  0  0  0  0
  -43.9307   79.6832  -45.6960 C   0  0  0  0  0  0  0  0  0  0  0  0
  -44.5245   79.4027  -47.0510 C   0  0  0  0  0  0  0  0  0  0  0  0
  -41.9137   78.4198  -48.4205 N   0  0  0  0  0  0  0  0  0  0  0  0
  -40.6817   78.4493  -48.9637 C   0  0  0  0  0  0  0  0  0  0  0  0
  -39.4938   78.6025  -48.2145 C   0  0  0  0  0  0  0  0  0  0  0  0
  -38.1542   78.5574  -48.9378 C   0  0  0  0  0  0  0  0  0  0  0  0
  -37.8027   77.1774  -49.3507 N   0  0  1  0  0  0  0  0  0  0  0  0
  -36.7061   77.0816  -50.3305 C   0  0  0  0  0  0  0  0  0  0  0  0
  -35.7565   76.0310  -49.7540 C   0  0  0  0  0  0  0  0  0  0  0  0
  -36.6363   75.2344  -48.9082 N   0  0  0  0  0  0  0  0  0  0  0  0
  -35.9030   74.4232  -47.9425 C   0  0  0  0  0  0  0  0  0  0  0  0
  -35.0736   73.3323  -48.5947 C   0  0  0  0  0  0  0  0  0  0  0  0
  -33.6920   73.5078  -48.8077 C   0  0  0  0  0  0  0  0  0  0  0  0
  -32.9701   72.4683  -49.4233 C   0  0  0  0  0  0  0  0  0  0  0  0
  -33.5248   71.2906  -49.7757 N   0  0  0  0  0  0  0  0  0  0  0  0
  -34.8550   71.1430  -49.6081 C   0  0  0  0  0  0  0  0  0  0  0  0
  -35.6693   72.1278  -49.0185 C   0  0  0  0  0  0  0  0  0  0  0  0
  -37.4457   76.2534  -48.2564 C   0  0  0  0  0  0  0  0  0  0  0  0
  1  2  1  0
  2  3  2  0
  2 10  1  0
  3  4  1  0
  4  5  1  0
  4  8  2  0
  5  6  1  0
  5  7  1  0
  6  7  1  0
  8  9  1  0
  9 10  2  0
 10 11  1  0
 12 11  1  1
 12 13  1  0
 12 23  1  0
 13 14  1  0
 14 15  1  0
 15 16  1  0
 15 23  1  0
 16 17  1  0
 17 18  2  0
 17 22  1  0
 18 19  1  0
 19 20  2  0
 20 21  1  0
 21 22  2  0
M  CHG  1  12   1
M  END
>  <cluster>  (96) 
cluster_84173

>  <glide_score>  (96) 
-6.54003214321285

>  <mmgbsa_dG>  (96) 
-43.9616835349734

$$$$
No_3096
     RDKit          3D

 25 28  0  0  1  0  0  0  0  0999 V2000
  -31.3218   81.9693  -40.5803 C   0  0  0  0  0  0  0  0  0  0  0  0
  -31.4990   82.7606  -41.7465 O   0  0  0  0  0  0  0  0  0  0  0  0
  -32.4826   82.3429  -42.5707 C   0  0  0  0  0  0  0  0  0  0  0  0
  -33.3475   83.0559  -43.3441 C   0  0  0  0  0  0  0  0  0  0  0  0
  -34.1408   82.0774  -44.0058 C   0  0  0  0  0  0  0  0  0  0  0  0
  -33.6666   80.8469  -43.6187 C   0  0  0  0  0  0  0  0  0  0  0  0
  -34.0012   79.4150  -43.9189 C   0  0  0  0  0  0  0  0  0  0  0  0
  -35.2413   79.1929  -44.6698 N   0  0  0  0  0  0  0  0  0  0  0  0
  -35.5711   77.7671  -44.6622 C   0  0  0  0  0  0  0  0  0  0  0  0
  -36.9335   77.5519  -45.3403 C   0  0  0  0  0  0  0  0  0  0  0  0
  -37.0516   78.1947  -46.6585 N   0  0  0  0  0  0  0  0  0  0  0  0
  -38.0181   77.6135  -47.6036 C   0  0  0  0  0  0  0  0  0  0  0  0
  -39.4266   78.2029  -47.6051 C   0  0  0  0  0  0  0  0  0  0  0  0
  -40.1540   78.2257  -48.8241 C   0  0  0  0  0  0  0  0  0  0  0  0
  -41.5139   78.6049  -48.8570 C   0  0  0  0  0  0  0  0  0  0  0  0
  -42.1354   78.9573  -47.6484 C   0  0  0  0  0  0  0  0  0  0  0  0
  -41.4249   78.9641  -46.4563 C   0  0  0  0  0  0  0  0  0  0  0  0
  -40.0676   78.6063  -46.4084 C   0  0  0  0  0  0  0  0  0  0  0  0
  -42.3067   79.3280  -45.2960 C   0  0  0  0  0  0  0  0  0  0  0  0
  -43.6055   79.8278  -45.9686 C   0  0  0  0  0  0  0  0  0  0  0  0
  -43.5739   79.3430  -47.4355 C   0  0  0  0  0  0  0  0  0  0  0  0
  -36.2490   79.2178  -47.0252 C   0  0  0  0  0  0  0  0  0  0  0  0
  -36.3623   79.8063  -48.0995 O   0  0  0  0  0  0  0  0  0  0  0  0
  -35.1081   79.6340  -46.0824 C   0  0  0  0  0  0  0  0  0  0  0  0
  -32.6371   81.0042  -42.7393 O   0  0  0  0  0  0  0  0  0  0  0  0
  1  2  1  0
  2  3  1  0
  3  4  2  0
  3 25  1  0
  4  5  1  0
  5  6  2  0
  6  7  1  0
  6 25  1  0
  7  8  1  0
  8  9  1  0
  8 24  1  0
  9 10  1  0
 10 11  1  0
 11 12  1  0
 11 22  1  0
 12 13  1  0
 13 14  2  0
 13 18  1  0
 14 15  1  0
 15 16  2  0
 16 17  1  0
 16 21  1  0
 17 18  2  0
 17 19  1  0
 19 20  1  0
 20 21  1  0
 22 23  2  0
 22 24  1  0
M  END
>  <cluster>  (97) 
cluster_87512

>  <glide_score>  (97) 
-6.87600655833141

>  <mmgbsa_dG>  (97) 
-43.9365998165667

$$$$
No_2984
     RDKit          3D

 25 28  0  0  1  0  0  0  0  0999 V2000
  -36.5017   78.8287  -44.8074 O   0  0  0  0  0  0  0  0  0  0  0  0
  -36.7422   77.7094  -45.2622 C   0  0  0  0  0  0  0  0  0  0  0  0
  -36.6918   76.6027  -44.4993 N   0  0  0  0  0  0  0  0  0  0  0  0
  -36.1574   76.4873  -43.1483 C   0  0  0  0  0  0  0  0  0  0  0  0
  -34.7622   75.8461  -43.2149 C   0  0  0  0  0  0  0  0  0  0  0  0
  -34.7445   74.3954  -43.1232 N   0  0  0  0  0  0  0  0  0  0  0  0
  -34.2499   73.5013  -43.9927 C   0  0  0  0  0  0  0  0  0  0  0  0
  -34.3222   72.2247  -43.6074 N   0  0  0  0  0  0  0  0  0  0  0  0
  -34.9293   72.2736  -42.3667 N   0  0  0  0  0  0  0  0  0  0  0  0
  -35.1427   73.5741  -42.1359 C   0  0  0  0  0  0  0  0  0  0  0  0
  -37.1441   77.4922  -46.5438 N   0  0  0  0  0  0  0  0  0  0  0  0
  -37.6785   78.6026  -47.3614 C   0  0  0  0  0  0  0  0  0  0  0  0
  -39.1984   78.6027  -47.5045 C   0  0  0  0  0  0  0  0  0  0  0  0
  -39.7835   78.5553  -48.8153 C   0  0  0  0  0  0  0  0  0  0  0  0
  -41.1875   78.6030  -49.0437 C   0  0  0  0  0  0  0  0  0  0  0  0
  -41.9610   78.7144  -47.8875 C   0  0  0  0  0  0  0  0  0  0  0  0
  -41.3805   78.7847  -46.5701 C   0  0  0  0  0  0  0  0  0  0  0  0
  -40.0050   78.7228  -46.3347 C   0  0  0  0  0  0  0  0  0  0  0  0
  -42.7187   78.9219  -45.9755 C   0  0  0  0  0  0  0  0  0  0  0  0
  -43.1034   79.0048  -44.8111 O   0  0  0  0  0  0  0  0  0  0  0  0
  -43.3931   78.8559  -47.4262 C   0  0  0  0  0  0  0  0  0  0  0  0
  -37.0232   76.1648  -47.2203 C   0  0  0  0  0  0  0  0  0  0  0  0
  -37.0475   76.0945  -48.7671 C   0  0  0  0  0  0  0  0  0  0  0  0
  -35.5218   76.2081  -48.7607 C   0  0  0  0  0  0  0  0  0  0  0  0
  -35.5564   75.6847  -47.3218 C   0  0  0  0  0  0  0  0  0  0  0  0
  1  2  2  0
  2  3  1  0
  2 11  1  0
  3  4  1  0
  4  5  1  0
  5  6  1  0
  6  7  1  0
  6 10  1  0
  7  8  2  0
  8  9  1  0
  9 10  2  0
 11 12  1  0
 11 22  1  0
 12 13  1  0
 13 14  2  0
 13 18  1  0
 14 15  1  0
 15 16  2  0
 16 17  1  0
 16 21  1  0
 17 18  2  0
 17 19  1  0
 19 20  2  0
 19 21  1  0
 22 23  1  0
 22 25  1  0
 23 24  1  0
 24 25  1  0
M  END
>  <cluster>  (98) 
cluster_76848

>  <glide_score>  (98) 
-6.56240864525632

>  <mmgbsa_dG>  (98) 
-43.9142641609069

$$$$
No_800
     RDKit          3D

 25 27  0  0  1  0  0  0  0  0999 V2000
  -35.5641   76.7653  -43.4055 C   0  0  0  0  0  0  0  0  0  0  0  0
  -35.1038   77.5490  -44.6419 C   0  0  0  0  0  0  0  0  0  0  0  0
  -36.2498   78.0858  -45.4444 C   0  0  0  0  0  0  0  0  0  0  0  0
  -36.8012   79.2818  -45.2079 N   0  0  0  0  0  0  0  0  0  0  0  0
  -37.8308   79.4012  -46.1170 N   0  0  0  0  0  0  0  0  0  0  0  0
  -37.8013   78.2662  -46.8178 C   0  0  0  0  0  0  0  0  0  0  0  0
  -38.6718   77.9238  -47.8466 N   0  0  0  0  0  0  0  0  0  0  0  0
  -39.8249   78.5508  -48.4770 C   0  0  0  0  0  0  0  0  0  0  0  0
  -41.1070   78.6950  -47.6535 C   0  0  0  0  0  0  0  0  0  0  0  0
  -41.0826   78.6102  -46.2422 C   0  0  0  0  0  0  0  0  0  0  0  0
  -42.2486   78.8092  -45.4819 C   0  0  0  0  0  0  0  0  0  0  0  0
  -43.4669   79.1015  -46.1077 C   0  0  0  0  0  0  0  0  0  0  0  0
  -43.5053   79.2123  -47.5048 C   0  0  0  0  0  0  0  0  0  0  0  0
  -42.3431   79.0158  -48.2771 C   0  0  0  0  0  0  0  0  0  0  0  0
  -42.4402   79.4008  -49.6308 N   0  0  0  0  0  0  0  0  0  0  0  0
  -42.3214   78.6332  -50.7259 C   0  0  0  0  0  0  0  0  0  0  0  0
  -42.0731   77.4273  -50.6837 O   0  0  0  0  0  0  0  0  0  0  0  0
  -42.5504   79.3139  -52.0860 C   0  0  0  0  0  0  0  0  0  0  0  0
  -43.3265   80.5854  -52.0429 N   0  0  0  0  0  0  0  0  0  0  0  0
  -44.7761   80.4302  -51.8019 C   0  0  0  0  0  0  0  0  0  0  0  0
  -45.4092   81.7545  -52.2403 C   0  0  0  0  0  0  0  0  0  0  0  0
  -44.4076   82.3753  -53.2195 C   0  0  0  0  0  0  0  0  0  0  0  0
  -43.2221   81.4037  -53.2663 C   0  0  0  0  0  0  0  0  0  0  0  0
  -36.8349   77.4059  -46.4536 N   0  0  0  0  0  0  0  0  0  0  0  0
  -36.5203   76.1044  -47.0230 C   0  0  0  0  0  0  0  0  0  0  0  0
  1  2  1  0
  2  3  1  0
  3  4  2  0
  3 24  1  0
  4  5  1  0
  5  6  2  0
  6  7  1  0
  6 24  1  0
  7  8  1  0
  8  9  1  0
  9 10  2  0
  9 14  1  0
 10 11  1  0
 11 12  2  0
 12 13  1  0
 13 14  2  0
 14 15  1  0
 15 16  1  0
 16 17  2  0
 16 18  1  0
 18 19  1  0
 19 20  1  0
 19 23  1  0
 20 21  1  0
 21 22  1  0
 22 23  1  0
 24 25  1  0
M  CHG  1  19   1
M  END
>  <cluster>  (99) 
cluster_27180

>  <glide_score>  (99) 
-7.30224974549763

>  <mmgbsa_dG>  (99) 
-43.8891403378584

$$$$
No_3959
     RDKit          3D

 21 23  0  0  1  0  0  0  0  0999 V2000
  -32.5744   79.4026  -44.0079 N   0  0  0  0  0  0  0  0  0  0  0  0
  -33.8016   79.7785  -44.3699 C   0  0  0  0  0  0  0  0  0  0  0  0
  -34.6316   80.2007  -43.5666 O   0  0  0  0  0  0  0  0  0  0  0  0
  -34.1295   79.6783  -45.8602 C   0  0  0  0  0  0  0  0  0  0  0  0
  -35.3466   78.9077  -46.1017 N   0  0  0  0  0  0  0  0  0  0  0  0
  -35.2791   77.4919  -46.4112 C   0  0  0  0  0  0  0  0  0  0  0  0
  -36.7436   77.1340  -46.6467 C   0  0  0  0  0  0  0  0  0  0  0  0
  -37.4132   78.4225  -46.5665 N   0  0  0  0  0  0  0  0  0  0  0  0
  -38.7649   78.6035  -46.9500 C   0  0  0  0  0  0  0  0  0  0  0  0
  -39.7012   78.8405  -46.0077 N   0  0  0  0  0  0  0  0  0  0  0  0
  -40.9987   78.9286  -46.3577 C   0  0  0  0  0  0  0  0  0  0  0  0
  -41.4417   78.7900  -47.6913 C   0  0  0  0  0  0  0  0  0  0  0  0
  -40.4702   78.6024  -48.6889 C   0  0  0  0  0  0  0  0  0  0  0  0
  -39.1116   78.5096  -48.3266 C   0  0  0  0  0  0  0  0  0  0  0  0
  -38.0771   78.3158  -49.4243 C   0  0  0  0  0  0  0  0  0  0  0  0
  -42.9143   78.8714  -48.0691 C   0  0  0  0  0  0  0  0  0  0  0  0
  -43.8663   78.8128  -46.8642 C   0  0  0  0  0  0  0  0  0  0  0  0
  -43.3481   79.6506  -45.6893 C   0  0  0  0  0  0  0  0  0  0  0  0
  -41.9805   79.1357  -45.2154 C   0  0  0  0  0  0  0  0  0  0  0  0
  -36.5976   79.3910  -46.1214 C   0  0  0  0  0  0  0  0  0  0  0  0
  -36.9106   80.5443  -45.8322 O   0  0  0  0  0  0  0  0  0  0  0  0
  1  2  1  0
  2  3  2  0
  2  4  1  0
  4  5  1  0
  5  6  1  0
  5 20  1  0
  6  7  1  0
  7  8  1  0
  8  9  1  0
  8 20  1  0
  9 10  2  0
  9 14  1  0
 10 11  1  0
 11 12  2  0
 11 19  1  0
 12 13  1  0
 12 16  1  0
 13 14  2  0
 14 15  1  0
 16 17  1  0
 17 18  1  0
 18 19  1  0
 20 21  2  0
M  END
>  <cluster>  (100) 
cluster_83099

>  <glide_score>  (100) 
-6.64803023732774

>  <mmgbsa_dG>  (100) 
-43.7806534182237

$$$$
No_640
     RDKit          3D

 23 24  0  0  1  0  0  0  0  0999 V2000
  -33.4106   81.5725  -41.0720 C   0  0  0  0  0  0  0  0  0  0  0  0
  -33.1219   80.6027  -42.1152 N   0  0  0  0  0  0  0  0  0  0  0  0
  -33.7821   80.4653  -43.2721 C   0  0  0  0  0  0  0  0  0  0  0  0
  -34.7222   81.1891  -43.6077 O   0  0  0  0  0  0  0  0  0  0  0  0
  -33.2798   79.3451  -44.1928 C   0  0  0  0  0  0  0  0  0  0  0  0
  -34.3434   78.6584  -44.9414 N   0  0  0  0  0  0  0  0  0  0  0  0
  -35.1940   77.8051  -44.3012 C   0  0  0  0  0  0  0  0  0  0  0  0
  -35.1235   77.5627  -43.0985 O   0  0  0  0  0  0  0  0  0  0  0  0
  -36.1184   77.1914  -45.0650 N   0  0  0  0  0  0  0  0  0  0  0  0
  -36.4308   77.5283  -46.4530 C   0  0  1  0  0  0  0  0  0  0  0  0
  -37.5368   78.5938  -46.5650 C   0  0  0  0  0  0  0  0  0  0  0  0
  -37.5228   79.4024  -47.4914 O   0  0  0  0  0  0  0  0  0  0  0  0
  -38.4748   78.6024  -45.6072 N   0  0  0  0  0  0  0  0  0  0  0  0
  -39.5648   79.5521  -45.4417 C   0  0  0  0  0  0  0  0  0  0  0  0
  -40.8809   79.1319  -46.0799 C   0  0  0  0  0  0  0  0  0  0  0  0
  -42.0874   79.3733  -45.3905 C   0  0  0  0  0  0  0  0  0  0  0  0
  -43.3264   79.1034  -45.9970 C   0  0  0  0  0  0  0  0  0  0  0  0
  -43.3658   78.5997  -47.3088 C   0  0  0  0  0  0  0  0  0  0  0  0
  -42.1691   78.3489  -48.0104 C   0  0  0  0  0  0  0  0  0  0  0  0
  -42.2100   77.8422  -49.4383 C   0  0  0  0  0  0  0  0  0  0  0  0
  -40.9292   78.6049  -47.3896 C   0  0  0  0  0  0  0  0  0  0  0  0
  -35.1206   77.8620  -47.1760 C   0  0  0  0  0  0  0  0  0  0  0  0
  -34.3782   78.9470  -46.3872 C   0  0  0  0  0  0  0  0  0  0  0  0
  1  2  1  0
  2  3  1  0
  3  4  2  0
  3  5  1  0
  5  6  1  0
  6  7  1  0
  6 23  1  0
  7  8  2  0
  7  9  1  0
  9 10  1  0
 10 11  1  1
 10 22  1  0
 11 12  2  0
 11 13  1  0
 13 14  1  0
 14 15  1  0
 15 16  2  0
 15 21  1  0
 16 17  1  0
 17 18  2  0
 18 19  1  0
 19 20  1  0
 19 21  2  0
 22 23  1  0
M  END
>  <cluster>  (101) 
cluster_640

>  <glide_score>  (101) 
-6.63000398727359

>  <mmgbsa_dG>  (101) 
-43.7331991562532

$$$$
No_2518
     RDKit          3D

 22 24  0  0  1  0  0  0  0  0999 V2000
  -35.4817   73.1345  -41.8082 C   0  0  0  0  0  0  0  0  0  0  0  0
  -35.1189   74.2299  -42.8050 C   0  0  0  0  0  0  0  0  0  0  0  0
  -34.3220   74.0240  -43.7193 O   0  0  0  0  0  0  0  0  0  0  0  0
  -35.8352   75.5715  -42.6433 C   0  0  0  0  0  0  0  0  0  0  0  0
  -35.2211   76.5923  -43.5356 N   0  0  2  0  0  0  0  0  0  0  0  0
  -34.9788   77.8957  -42.8455 C   0  0  0  0  0  0  0  0  0  0  0  0
  -34.4128   78.9690  -43.7904 C   0  0  0  0  0  0  0  0  0  0  0  0
  -35.2908   79.0498  -44.9408 N   0  0  0  0  0  0  0  0  0  0  0  0
  -36.1969   79.9897  -45.2111 C   0  0  0  0  0  0  0  0  0  0  0  0
  -36.3285   81.0535  -44.6107 O   0  0  0  0  0  0  0  0  0  0  0  0
  -37.0927   79.5514  -46.3661 C   0  0  2  0  0  0  0  0  0  0  0  0
  -38.5567   79.3990  -45.9095 C   0  0  0  0  0  0  0  0  0  0  0  0
  -39.3622   79.0012  -47.0124 O   0  0  0  0  0  0  0  0  0  0  0  0
  -40.7240   78.8911  -46.8101 C   0  0  0  0  0  0  0  0  0  0  0  0
  -41.5205   78.6049  -47.9402 C   0  0  0  0  0  0  0  0  0  0  0  0
  -42.9232   78.5442  -47.8347 C   0  0  0  0  0  0  0  0  0  0  0  0
  -43.5467   78.7400  -46.5887 C   0  0  0  0  0  0  0  0  0  0  0  0
  -42.7643   78.9952  -45.4483 C   0  0  0  0  0  0  0  0  0  0  0  0
  -41.3622   79.0686  -45.5575 C   0  0  0  0  0  0  0  0  0  0  0  0
  -36.4440   78.2346  -46.8303 C   0  0  0  0  0  0  0  0  0  0  0  0
  -35.4428   77.8485  -45.7288 C   0  0  2  0  0  0  0  0  0  0  0  0
  -35.9760   76.7293  -44.8145 C   0  0  0  0  0  0  0  0  0  0  0  0
  1  2  1  0
  2  3  2  0
  2  4  1  0
  5  4  1  1
  5  6  1  0
  5 22  1  0
  6  7  1  0
  7  8  1  0
  8  9  1  0
  8 21  1  0
  9 10  2  0
  9 11  1  0
 11 12  1  1
 11 20  1  0
 12 13  1  0
 13 14  1  0
 14 15  2  0
 14 19  1  0
 15 16  1  0
 16 17  2  0
 17 18  1  0
 18 19  2  0
 21 20  1  6
 21 22  1  0
M  CHG  1   5   1
M  END
>  <cluster>  (102) 
cluster_34174

>  <glide_score>  (102) 
-6.52837200536481

>  <mmgbsa_dG>  (102) 
-43.580295788568

$$$$
No_2891
     RDKit          3D

 22 24  0  0  1  0  0  0  0  0999 V2000
  -33.8947   72.7294  -43.6637 C   0  0  0  0  0  0  0  0  0  0  0  0
  -34.2660   73.8215  -42.6493 C   0  0  1  0  0  0  0  0  0  0  0  0
  -34.5224   75.1945  -43.3011 C   0  0  0  0  0  0  0  0  0  0  0  0
  -35.9328   75.5152  -43.0479 N   0  0  2  0  0  0  0  0  0  0  0  0
  -36.3104   76.9518  -43.0653 C   0  0  0  0  0  0  0  0  0  0  0  0
  -36.1760   77.6768  -44.4145 C   0  0  0  0  0  0  0  0  0  0  0  0
  -35.8391   78.8598  -44.4090 O   0  0  0  0  0  0  0  0  0  0  0  0
  -36.4244   77.0024  -45.5474 N   0  0  0  0  0  0  0  0  0  0  0  0
  -36.2721   77.5506  -46.8966 C   0  0  0  0  0  0  0  0  0  0  0  0
  -37.5600   77.9141  -47.5707 C   0  0  0  0  0  0  0  0  0  0  0  0
  -37.8870   78.0502  -48.8931 C   0  0  0  0  0  0  0  0  0  0  0  0
  -39.2554   78.4341  -48.9484 C   0  0  0  0  0  0  0  0  0  0  0  0
  -39.6569   78.5106  -47.6446 C   0  0  0  0  0  0  0  0  0  0  0  0
  -40.9229   78.8507  -47.1486 N   0  0  0  0  0  0  0  0  0  0  0  0
  -42.1544   78.9672  -47.7630 C   0  0  0  0  0  0  0  0  0  0  0  0
  -42.2257   78.7408  -49.0804 O   0  0  0  0  0  0  0  0  0  0  0  0
  -43.1378   79.3010  -46.9331 C   0  0  0  0  0  0  0  0  0  0  0  0
  -42.5970   79.4599  -45.5389 C   0  0  0  0  0  0  0  0  0  0  0  0
  -41.1012   79.1061  -45.7237 C   0  0  0  0  0  0  0  0  0  0  0  0
  -38.6413   78.2064  -46.7848 O   0  0  0  0  0  0  0  0  0  0  0  0
  -36.2927   74.8212  -41.7999 C   0  0  0  0  0  0  0  0  0  0  0  0
  -35.5471   73.4941  -41.8662 C   0  0  0  0  0  0  0  0  0  0  0  0
  2  1  1  6
  2  3  1  0
  2 22  1  0
  3  4  1  0
  4  5  1  1
  4 21  1  0
  5  6  1  0
  6  7  2  0
  6  8  1  0
  8  9  1  0
  9 10  1  0
 10 11  2  0
 10 20  1  0
 11 12  1  0
 12 13  2  0
 13 14  1  0
 13 20  1  0
 14 15  1  0
 14 19  1  0
 15 16  1  0
 15 17  2  0
 17 18  1  0
 18 19  1  0
 21 22  1  0
M  CHG  1   4   1
M  END
>  <cluster>  (103) 
cluster_2891

>  <glide_score>  (103) 
-6.68034759986018

>  <mmgbsa_dG>  (103) 
-43.464654252617

$$$$
No_2125
     RDKit          3D

 23 26  0  0  1  0  0  0  0  0999 V2000
  -37.8296   79.0028  -48.5310 O   0  0  0  0  0  0  0  0  0  0  0  0
  -38.4460   78.6015  -47.5456 C   0  0  0  0  0  0  0  0  0  0  0  0
  -37.8437   78.1164  -46.4501 N   0  0  0  0  0  0  0  0  0  0  0  0
  -36.4030   78.0073  -46.2535 C   0  0  0  0  0  0  0  0  0  0  0  0
  -36.0468   76.5691  -45.8589 C   0  0  0  0  0  0  0  0  0  0  0  0
  -34.6146   76.4180  -45.6076 N   0  0  0  0  0  0  0  0  0  0  0  0
  -33.8246   76.2511  -46.8203 C   0  0  0  0  0  0  0  0  0  0  0  0
  -33.9143   74.7285  -46.6171 C   0  0  0  0  0  0  0  0  0  0  0  0
  -34.3222   74.9913  -45.2491 N   0  0  0  0  0  0  0  0  0  0  0  0
  -39.9528   78.6302  -47.5040 C   0  0  0  0  0  0  0  0  0  0  0  0
  -40.5891   78.9082  -46.2666 C   0  0  0  0  0  0  0  0  0  0  0  0
  -41.9862   79.0021  -46.2220 C   0  0  0  0  0  0  0  0  0  0  0  0
  -42.7560   78.8755  -47.3657 C   0  0  0  0  0  0  0  0  0  0  0  0
  -42.1668   78.6025  -48.6067 C   0  0  0  0  0  0  0  0  0  0  0  0
  -40.7602   78.4647  -48.6790 C   0  0  0  0  0  0  0  0  0  0  0  0
  -40.2301   78.1214  -49.9433 N   0  0  0  0  0  0  0  0  0  0  0  0
  -39.5840   77.0028  -50.2905 C   0  0  0  0  0  0  0  0  0  0  0  0
  -39.3198   76.9483  -51.5991 N   0  0  0  0  0  0  0  0  0  0  0  0
  -39.8392   78.1300  -52.1306 N   0  0  0  0  0  0  0  0  0  0  0  0
  -40.3730   78.7854  -51.0938 C   0  0  0  0  0  0  0  0  0  0  0  0
  -44.2184   79.0593  -47.0711 C   0  0  0  0  0  0  0  0  0  0  0  0
  -44.2271   79.5240  -45.5994 C   0  0  0  0  0  0  0  0  0  0  0  0
  -42.8360   79.2273  -45.0083 C   0  0  0  0  0  0  0  0  0  0  0  0
  1  2  2  0
  2  3  1  0
  2 10  1  0
  3  4  1  0
  4  5  1  0
  5  6  1  0
  6  7  1  0
  6  9  1  0
  7  8  1  0
  8  9  1  0
 10 11  2  0
 10 15  1  0
 11 12  1  0
 12 13  2  0
 12 23  1  0
 13 14  1  0
 13 21  1  0
 14 15  2  0
 15 16  1  0
 16 17  1  0
 16 20  1  0
 17 18  2  0
 18 19  1  0
 19 20  2  0
 21 22  1  0
 22 23  1  0
M  END
>  <cluster>  (104) 
cluster_65437

>  <glide_score>  (104) 
-6.53134745998571

>  <mmgbsa_dG>  (104) 
-43.3760816439899

$$$$
No_3400
     RDKit          3D

 24 26  0  0  1  0  0  0  0  0999 V2000
  -36.5874   75.5852  -41.9371 C   0  0  0  0  0  0  0  0  0  0  0  0
  -35.9195   75.8025  -43.2081 N   0  0  0  0  0  0  0  0  0  0  0  0
  -35.2476   76.9106  -43.5664 C   0  0  0  0  0  0  0  0  0  0  0  0
  -35.1217   77.8686  -42.8070 O   0  0  0  0  0  0  0  0  0  0  0  0
  -34.6915   76.9684  -45.0136 C   0  0  1  0  0  0  0  0  0  0  0  0
  -35.7196   76.6024  -46.0286 N   0  0  0  0  0  0  0  0  0  0  0  0
  -36.6360   77.6647  -46.5243 C   0  0  0  0  0  0  0  0  0  0  0  0
  -37.5890   77.0750  -47.5918 C   0  0  0  0  0  0  0  0  0  0  0  0
  -38.6832   78.0692  -48.0348 C   0  0  0  0  0  0  0  0  0  0  0  0
  -39.3536   78.6437  -46.8675 N   0  0  0  0  0  0  0  0  0  0  0  0
  -40.7591   78.7543  -46.7783 C   0  0  0  0  0  0  0  0  0  0  0  0
  -41.4675   78.6031  -47.9205 N   0  0  0  0  0  0  0  0  0  0  0  0
  -42.8130   78.6957  -47.8718 C   0  0  0  0  0  0  0  0  0  0  0  0
  -43.5290   78.9257  -46.6821 C   0  0  0  0  0  0  0  0  0  0  0  0
  -45.0390   79.0005  -46.6805 C   0  0  0  0  0  0  0  0  0  0  0  0
  -42.8028   79.0878  -45.4923 C   0  0  0  0  0  0  0  0  0  0  0  0
  -41.4015   79.0027  -45.5411 C   0  0  0  0  0  0  0  0  0  0  0  0
  -38.4831   79.3015  -45.9022 C   0  0  0  0  0  0  0  0  0  0  0  0
  -37.4523   78.3023  -45.3799 C   0  0  0  0  0  0  0  0  0  0  0  0
  -33.9320   78.2353  -45.3577 C   0  0  0  0  0  0  0  0  0  0  0  0
  -34.1842   79.5668  -45.1412 C   0  0  0  0  0  0  0  0  0  0  0  0
  -33.0807   80.2479  -45.7259 C   0  0  0  0  0  0  0  0  0  0  0  0
  -32.2006   79.4200  -46.2546 N   0  0  0  0  0  0  0  0  0  0  0  0
  -32.7240   78.2014  -46.0284 N   0  0  0  0  0  0  0  0  0  0  0  0
  1  2  1  0
  2  3  1  0
  3  4  2  0
  3  5  1  0
  5  6  1  6
  5 20  1  0
  6  7  1  0
  7  8  1  0
  7 19  1  0
  8  9  1  0
  9 10  1  0
 10 11  1  0
 10 18  1  0
 11 12  2  0
 11 17  1  0
 12 13  1  0
 13 14  2  0
 14 15  1  0
 14 16  1  0
 16 17  2  0
 18 19  1  0
 20 21  2  0
 20 24  1  0
 21 22  1  0
 22 23  2  0
 23 24  1  0
M  CHG  1   6   1
M  END
>  <cluster>  (105) 
cluster_87816

>  <glide_score>  (105) 
-6.63931423516562

>  <mmgbsa_dG>  (105) 
-43.3362188245446

$$$$
No_2076
     RDKit          3D

 22 24  0  0  1  0  0  0  0  0999 V2000
  -36.5426   76.1356  -47.2317 O   0  0  0  0  0  0  0  0  0  0  0  0
  -36.2211   77.0041  -46.4208 C   0  0  0  0  0  0  0  0  0  0  0  0
  -36.8956   78.1185  -46.0511 N   0  0  0  0  0  0  0  0  0  0  0  0
  -38.0273   78.4326  -46.7041 C   0  0  0  0  0  0  0  0  0  0  0  0
  -38.1875   78.7463  -47.9963 N   0  0  0  0  0  0  0  0  0  0  0  0
  -39.5509   78.9173  -48.1702 N   0  0  0  0  0  0  0  0  0  0  0  0
  -40.0775   78.7112  -46.9588 C   0  0  0  0  0  0  0  0  0  0  0  0
  -41.4634   78.7892  -46.6542 N   0  0  0  0  0  0  0  0  0  0  0  0
  -41.9303   79.1670  -45.3307 C   0  0  0  0  0  0  0  0  0  0  0  0
  -43.4488   78.9966  -45.3609 C   0  0  0  0  0  0  0  0  0  0  0  0
  -43.8197   78.8836  -46.8371 C   0  0  0  0  0  0  0  0  0  0  0  0
  -42.4853   78.6027  -47.5071 C   0  0  0  0  0  0  0  0  0  0  0  0
  -42.4111   78.2161  -48.6730 O   0  0  0  0  0  0  0  0  0  0  0  0
  -39.1695   78.4441  -46.0083 N   0  0  0  0  0  0  0  0  0  0  0  0
  -34.9064   76.8370  -45.6611 C   0  0  0  0  0  0  0  0  0  0  0  0
  -35.1223   75.8026  -44.6212 N   0  0  1  0  0  0  0  0  0  0  0  0
  -34.3221   74.5614  -44.8142 C   0  0  0  0  0  0  0  0  0  0  0  0
  -34.1327   73.6799  -43.5607 C   0  0  0  0  0  0  0  0  0  0  0  0
  -35.3665   73.2786  -42.9979 O   0  0  0  0  0  0  0  0  0  0  0  0
  -35.8016   74.1264  -41.9481 C   0  0  0  0  0  0  0  0  0  0  0  0
  -36.2630   75.5218  -42.4076 C   0  0  0  0  0  0  0  0  0  0  0  0
  -35.2471   76.3305  -43.2438 C   0  0  0  0  0  0  0  0  0  0  0  0
  1  2  2  0
  2  3  1  0
  2 15  1  0
  3  4  1  0
  4  5  2  0
  4 14  1  0
  5  6  1  0
  6  7  2  0
  7  8  1  0
  7 14  1  0
  8  9  1  0
  8 12  1  0
  9 10  1  0
 10 11  1  0
 11 12  1  0
 12 13  2  0
 16 15  1  6
 16 17  1  0
 16 22  1  0
 17 18  1  0
 18 19  1  0
 19 20  1  0
 20 21  1  0
 21 22  1  0
M  CHG  2   3  -1  16   1
M  END
>  <cluster>  (106) 
cluster_65388

>  <glide_score>  (106) 
-7.24650433083588

>  <mmgbsa_dG>  (106) 
-43.2509877555422

$$$$
No_4973
     RDKit          3D

 19 21  0  0  1  0  0  0  0  0999 V2000
  -36.3813   75.7984  -42.5572 C   0  0  0  0  0  0  0  0  0  0  0  0
  -36.0536   77.0028  -43.4340 C   0  0  0  0  0  0  0  0  0  0  0  0
  -35.3415   77.9072  -43.0018 O   0  0  0  0  0  0  0  0  0  0  0  0
  -36.5836   77.0027  -44.6651 N   0  0  0  0  0  0  0  0  0  0  0  0
  -36.4026   78.0499  -45.6611 C   0  0  0  0  0  0  0  0  0  0  0  0
  -37.6187   78.2364  -46.5114 C   0  0  0  0  0  0  0  0  0  0  0  0
  -38.8914   78.4500  -46.0077 N   0  0  0  0  0  0  0  0  0  0  0  0
  -39.7696   78.6027  -47.0114 C   0  0  0  0  0  0  0  0  0  0  0  0
  -41.2037   78.8609  -46.7719 C   0  0  0  0  0  0  0  0  0  0  0  0
  -41.5860   79.0025  -45.5013 N   0  0  0  0  0  0  0  0  0  0  0  0
  -42.9456   79.2409  -45.5039 C   0  0  0  0  0  0  0  0  0  0  0  0
  -43.3772   79.2275  -46.7985 C   0  0  0  0  0  0  0  0  0  0  0  0
  -42.2758   78.9838  -47.6191 N   0  0  0  0  0  0  0  0  0  0  0  0
  -42.4928   78.9039  -49.0732 C   0  0  0  0  0  0  0  0  0  0  0  0
  -41.4189   79.3471  -50.0289 C   0  0  0  0  0  0  0  0  0  0  0  0
  -41.7088   77.8632  -49.8291 C   0  0  0  0  0  0  0  0  0  0  0  0
  -39.1236   78.5005  -48.1714 N   0  0  0  0  0  0  0  0  0  0  0  0
  -37.7810   78.2730  -47.8737 C   0  0  0  0  0  0  0  0  0  0  0  0
  -36.7567   78.1145  -48.9545 C   0  0  0  0  0  0  0  0  0  0  0  0
  1  2  1  0
  2  3  2  0
  2  4  1  0
  4  5  1  0
  5  6  1  0
  6 18  2  0
  6  7  1  0
  7  8  1  0
  8  9  1  0
  8 17  2  0
  9 10  2  0
  9 13  1  0
 10 11  1  0
 11 12  2  0
 12 13  1  0
 13 14  1  0
 14 15  1  0
 14 16  1  0
 15 16  1  0
 17 18  1  0
 18 19  1  0
M  END
>  <cluster>  (107) 
cluster_41905

>  <glide_score>  (107) 
-6.56141190286963

>  <mmgbsa_dG>  (107) 
-43.2465259066666

$$$$
No_4996
     RDKit          3D

 23 24  0  0  1  0  0  0  0  0999 V2000
  -41.0060   78.2726  -49.4025 C   0  0  0  0  0  0  0  0  0  0  0  0
  -41.4679   78.5834  -47.9869 C   0  0  0  0  0  0  0  0  0  0  0  0
  -42.8553   78.7253  -47.7787 C   0  0  0  0  0  0  0  0  0  0  0  0
  -43.3743   79.0013  -46.5030 C   0  0  0  0  0  0  0  0  0  0  0  0
  -42.4982   79.1362  -45.4153 C   0  0  0  0  0  0  0  0  0  0  0  0
  -41.1099   79.0047  -45.6081 C   0  0  0  0  0  0  0  0  0  0  0  0
  -40.5690   78.7218  -46.8873 C   0  0  0  0  0  0  0  0  0  0  0  0
  -39.0688   78.6430  -47.0610 C   0  0  0  0  0  0  0  0  0  0  0  0
  -38.5256   78.9739  -48.1147 O   0  0  0  0  0  0  0  0  0  0  0  0
  -38.3700   78.2026  -46.0076 N   0  0  0  0  0  0  0  0  0  0  0  0
  -36.9235   78.0108  -45.9647 C   0  0  0  0  0  0  0  0  0  0  0  0
  -36.5033   76.6022  -46.4406 C   0  0  0  0  0  0  0  0  0  0  0  0
  -34.7232   76.1994  -46.1064 S   0  0  0  0  0  0  0  0  0  0  0  0
  -34.3254   75.1552  -47.0629 O   0  0  0  0  0  0  0  0  0  0  0  0
  -33.9679   77.4606  -46.0467 O   0  0  0  0  0  0  0  0  0  0  0  0
  -34.7222   75.5237  -44.4879 N   0  0  0  0  0  0  0  0  0  0  0  0
  -35.0555   76.4558  -43.4034 C   0  0  0  0  0  0  0  0  0  0  0  0
  -36.4330   76.1358  -42.8179 C   0  0  0  0  0  0  0  0  0  0  0  0
  -36.3156   75.2040  -41.7576 O   0  0  0  0  0  0  0  0  0  0  0  0
  -35.9321   73.8842  -42.1256 C   0  0  0  0  0  0  0  0  0  0  0  0
  -34.4876   73.7711  -42.6720 C   0  0  0  0  0  0  0  0  0  0  0  0
  -34.3225   74.2030  -44.1426 C   0  0  0  0  0  0  0  0  0  0  0  0
  -33.8803   73.4007  -44.9599 O   0  0  0  0  0  0  0  0  0  0  0  0
  1  2  1  0
  2  3  2  0
  2  7  1  0
  3  4  1  0
  4  5  2  0
  5  6  1  0
  6  7  2  0
  7  8  1  0
  8  9  2  0
  8 10  1  0
 10 11  1  0
 11 12  1  0
 12 13  1  0
 13 14  2  0
 13 15  2  0
 13 16  1  0
 16 17  1  0
 16 22  1  0
 17 18  1  0
 18 19  1  0
 19 20  1  0
 20 21  1  0
 21 22  1  0
 22 23  2  0
M  END
>  <cluster>  (108) 
cluster_52480

>  <glide_score>  (108) 
-6.7717809938888

>  <mmgbsa_dG>  (108) 
-43.2282973963884

$$$$
No_2844
     RDKit          3D

 22 23  0  0  1  0  0  0  0  0999 V2000
  -36.9291   75.7056  -41.8720 C   0  0  0  0  0  0  0  0  0  0  0  0
  -36.2971   75.8070  -43.1780 N   0  0  0  0  0  0  0  0  0  0  0  0
  -35.5504   76.8309  -43.6114 C   0  0  0  0  0  0  0  0  0  0  0  0
  -35.2941   77.8168  -42.9250 O   0  0  0  0  0  0  0  0  0  0  0  0
  -35.0334   76.7424  -45.0526 C   0  0  0  0  0  0  0  0  0  0  0  0
  -36.1369   76.6336  -46.0597 N   0  0  2  0  0  0  0  0  0  0  0  0
  -35.8075   75.5943  -47.0809 C   0  0  0  0  0  0  0  0  0  0  0  0
  -37.0214   75.0661  -47.8685 C   0  0  0  0  0  0  0  0  0  0  0  0
  -37.4387   75.9699  -48.9300 N   0  0  0  0  0  0  0  0  0  0  0  0
  -37.9063   77.2117  -48.7648 C   0  0  0  0  0  0  0  0  0  0  0  0
  -38.2609   77.8882  -49.7279 O   0  0  0  0  0  0  0  0  0  0  0  0
  -38.0257   77.7613  -47.3328 C   0  0  2  0  0  0  0  0  0  0  0  0
  -38.8318   79.0002  -47.3569 N   0  0  0  0  0  0  0  0  0  0  0  0
  -39.6788   79.1900  -46.1818 C   0  0  0  0  0  0  0  0  0  0  0  0
  -41.1692   79.0026  -46.4202 C   0  0  0  0  0  0  0  0  0  0  0  0
  -41.6959   78.6024  -47.6698 C   0  0  0  0  0  0  0  0  0  0  0  0
  -43.0877   78.5027  -47.8478 C   0  0  0  0  0  0  0  0  0  0  0  0
  -43.9653   78.7856  -46.7851 C   0  0  0  0  0  0  0  0  0  0  0  0
  -43.4477   79.1720  -45.5367 C   0  0  0  0  0  0  0  0  0  0  0  0
  -42.0560   79.2813  -45.3596 C   0  0  0  0  0  0  0  0  0  0  0  0
  -36.6084   77.9328  -46.6664 C   0  0  1  0  0  0  0  0  0  0  0  0
  -36.5437   79.1328  -45.6788 C   0  0  0  0  0  0  0  0  0  0  0  0
  1  2  1  0
  2  3  1  0
  3  4  2  0
  3  5  1  0
  6  5  1  6
  6  7  1  0
  6 21  1  0
  7  8  1  0
  8  9  1  0
  9 10  1  0
 10 11  2  0
 10 12  1  0
 12 13  1  6
 12 21  1  0
 13 14  1  0
 14 15  1  0
 15 16  2  0
 15 20  1  0
 16 17  1  0
 17 18  2  0
 18 19  1  0
 19 20  2  0
 21 22  1  1
M  CHG  1   6   1
M  END
>  <cluster>  (109) 
cluster_34500

>  <glide_score>  (109) 
-6.55871066796313

>  <mmgbsa_dG>  (109) 
-43.2254724909872

$$$$
No_561
     RDKit          3D

 24 26  0  0  1  0  0  0  0  0999 V2000
  -35.7707   72.6746  -41.8438 C   0  0  0  0  0  0  0  0  0  0  0  0
  -34.7858   73.8387  -41.9293 C   0  0  0  0  0  0  0  0  0  0  0  0
  -34.7157   74.4481  -43.2565 N   0  0  0  0  0  0  0  0  0  0  0  0
  -34.3099   73.8135  -44.3708 C   0  0  0  0  0  0  0  0  0  0  0  0
  -34.1254   72.6026  -44.4068 O   0  0  0  0  0  0  0  0  0  0  0  0
  -34.0419   74.6192  -45.6550 C   0  0  0  0  0  0  0  0  0  0  0  0
  -35.1222   75.5719  -46.0078 N   0  0  2  0  0  0  0  0  0  0  0  0
  -35.3913   75.6009  -47.4685 C   0  0  0  0  0  0  0  0  0  0  0  0
  -36.6539   76.3957  -47.8340 C   0  0  0  0  0  0  0  0  0  0  0  0
  -36.3762   77.7864  -47.7387 O   0  0  0  0  0  0  0  0  0  0  0  0
  -36.7432   78.4351  -46.5202 C   0  0  1  0  0  0  0  0  0  0  0  0
  -38.2328   78.7670  -46.4466 C   0  0  0  0  0  0  0  0  0  0  0  0
  -39.0076   78.4215  -47.5033 N   0  0  0  0  0  0  0  0  0  0  0  0
  -40.3360   78.5672  -47.4474 N   0  0  0  0  0  0  0  0  0  0  0  0
  -40.9411   79.0027  -46.3155 C   0  0  0  0  0  0  0  0  0  0  0  0
  -42.3534   79.0708  -46.2291 N   0  0  0  0  0  0  0  0  0  0  0  0
  -43.1823   78.8444  -47.2487 C   0  0  0  0  0  0  0  0  0  0  0  0
  -44.4564   79.0024  -46.9140 N   0  0  0  0  0  0  0  0  0  0  0  0
  -44.3187   79.3787  -45.6068 C   0  0  0  0  0  0  0  0  0  0  0  0
  -43.0738   79.4023  -45.1363 N   0  0  0  0  0  0  0  0  0  0  0  0
  -40.1781   79.4228  -45.2079 C   0  0  0  0  0  0  0  0  0  0  0  0
  -38.7796   79.3462  -45.2871 C   0  0  0  0  0  0  0  0  0  0  0  0
  -36.2767   77.6536  -45.2677 C   0  0  0  0  0  0  0  0  0  0  0  0
  -34.9329   76.9270  -45.4262 C   0  0  0  0  0  0  0  0  0  0  0  0
  1  2  1  0
  2  3  1  0
  3  4  1  0
  4  5  2  0
  4  6  1  0
  7  6  1  6
  7  8  1  0
  7 24  1  0
  8  9  1  0
  9 10  1  0
 10 11  1  0
 11 12  1  1
 11 23  1  0
 12 13  2  0
 12 22  1  0
 13 14  1  0
 14 15  2  0
 15 16  1  0
 15 21  1  0
 16 17  1  0
 16 20  1  0
 17 18  2  0
 18 19  1  0
 19 20  2  0
 21 22  2  0
 23 24  1  0
M  CHG  1   7   1
M  END
>  <cluster>  (110) 
cluster_16389

>  <glide_score>  (110) 
-6.89468628071329

>  <mmgbsa_dG>  (110) 
-43.1522004108556

$$$$
No_5059
     RDKit          3D

 22 24  0  0  1  0  0  0  0  0999 V2000
  -34.9808   79.3164  -45.5760 C   0  0  0  0  0  0  0  0  0  0  0  0
  -36.3364   78.6525  -45.2684 C   0  0  1  0  0  0  0  0  0  0  0  0
  -37.0554   78.2283  -46.5639 C   0  0  0  0  0  0  0  0  0  0  0  0
  -38.5140   78.2026  -46.4194 N   0  0  0  0  0  0  0  0  0  0  0  0
  -39.3475   78.6036  -47.3936 C   0  0  0  0  0  0  0  0  0  0  0  0
  -38.9459   78.9930  -48.4886 O   0  0  0  0  0  0  0  0  0  0  0  0
  -40.8185   78.6035  -47.0867 C   0  0  0  0  0  0  0  0  0  0  0  0
  -41.2821   79.0023  -45.8094 C   0  0  0  0  0  0  0  0  0  0  0  0
  -42.6662   79.1049  -45.5780 C   0  0  0  0  0  0  0  0  0  0  0  0
  -43.5425   78.8219  -46.6407 C   0  0  0  0  0  0  0  0  0  0  0  0
  -45.0358   79.0026  -46.5071 C   0  0  0  0  0  0  0  0  0  0  0  0
  -43.1209   78.4260  -47.8539 N   0  0  0  0  0  0  0  0  0  0  0  0
  -41.7967   78.3282  -48.0831 C   0  0  0  0  0  0  0  0  0  0  0  0
  -41.4548   77.9011  -49.5021 C   0  0  0  0  0  0  0  0  0  0  0  0
  -36.1788   77.5097  -44.3115 C   0  0  0  0  0  0  0  0  0  0  0  0
  -35.0817   76.7449  -44.1594 N   0  0  0  0  0  0  0  0  0  0  0  0
  -35.3317   75.7922  -43.2160 C   0  0  0  0  0  0  0  0  0  0  0  0
  -36.5859   75.9546  -42.8078 C   0  0  0  0  0  0  0  0  0  0  0  0
  -37.1210   77.0026  -43.4961 N   0  0  0  0  0  0  0  0  0  0  0  0
  -37.0660   74.9376  -41.8690 C   0  0  0  0  0  0  0  0  0  0  0  0
  -35.8074   74.0006  -41.8043 C   0  0  0  0  0  0  0  0  0  0  0  0
  -34.6397   74.6284  -42.6402 C   0  0  0  0  0  0  0  0  0  0  0  0
  2  1  1  6
  2  3  1  0
  2 15  1  0
  3  4  1  0
  4  5  1  0
  5  6  2  0
  5  7  1  0
  7  8  2  0
  7 13  1  0
  8  9  1  0
  9 10  2  0
 10 11  1  0
 10 12  1  0
 12 13  2  0
 13 14  1  0
 15 16  2  0
 15 19  1  0
 16 17  1  0
 17 18  2  0
 17 22  1  0
 18 19  1  0
 18 20  1  0
 20 21  1  0
 21 22  1  0
M  CHG  1  16   1
M  END
>  <cluster>  (111) 
cluster_63095

>  <glide_score>  (111) 
-6.85722621069745

>  <mmgbsa_dG>  (111) 
-43.1018844896389

$$$$
No_2313
     RDKit          3D

 19 21  0  0  1  0  0  0  0  0999 V2000
  -35.2538   76.6402  -46.2421 C   0  0  0  0  0  0  0  0  0  0  0  0
  -35.8341   77.4814  -45.0938 C   0  0  2  0  0  0  0  0  0  0  0  0
  -36.4799   76.6027  -44.0907 N   0  0  0  0  0  0  0  0  0  0  0  0
  -35.6868   76.3423  -42.8802 C   0  0  0  0  0  0  0  0  0  0  0  0
  -36.3176   75.2754  -42.0214 C   0  0  0  0  0  0  0  0  0  0  0  0
  -35.0554   74.9740  -42.8076 C   0  0  0  0  0  0  0  0  0  0  0  0
  -36.7774   78.5794  -45.6252 C   0  0  0  0  0  0  0  0  0  0  0  0
  -36.3346   79.4377  -46.3855 O   0  0  0  0  0  0  0  0  0  0  0  0
  -38.0538   78.5899  -45.2077 N   0  0  0  0  0  0  0  0  0  0  0  0
  -39.0646   79.5762  -45.5205 C   0  0  0  0  0  0  0  0  0  0  0  0
  -40.0433   79.0766  -46.5380 C   0  0  0  0  0  0  0  0  0  0  0  0
  -39.7093   78.6625  -47.8080 C   0  0  0  0  0  0  0  0  0  0  0  0
  -41.0668   78.2852  -48.8296 S   0  0  0  0  0  0  0  0  0  0  0  0
  -42.1695   78.6027  -47.5042 C   0  0  0  0  0  0  0  0  0  0  0  0
  -43.5222   78.4864  -47.6078 N   0  0  0  0  0  0  0  0  0  0  0  0
  -44.1811   78.7994  -46.4719 C   0  0  0  0  0  0  0  0  0  0  0  0
  -43.5163   79.1812  -45.2894 C   0  0  0  0  0  0  0  0  0  0  0  0
  -42.1696   79.2829  -45.2077 N   0  0  0  0  0  0  0  0  0  0  0  0
  -41.4751   79.0026  -46.3204 C   0  0  0  0  0  0  0  0  0  0  0  0
  2  1  1  6
  2  3  1  0
  2  7  1  0
  3  4  1  0
  4  5  1  0
  4  6  1  0
  5  6  1  0
  7  8  2  0
  7  9  1  0
  9 10  1  0
 10 11  1  0
 11 12  2  0
 11 19  1  0
 12 13  1  0
 13 14  1  0
 14 15  1  0
 14 19  2  0
 15 16  2  0
 16 17  1  0
 17 18  2  0
 18 19  1  0
M  CHG  1   3   1
M  END
>  <cluster>  (112) 
cluster_44521

>  <glide_score>  (112) 
-6.59992311840979

>  <mmgbsa_dG>  (112) 
-43.0894769551014

$$$$
No_3809
     RDKit          3D

 26 29  0  0  1  0  0  0  0  0999 V2000
  -35.1219   80.0087  -43.7368 O   0  0  0  0  0  0  0  0  0  0  0  0
  -34.6453   79.0836  -44.4007 C   0  0  0  0  0  0  0  0  0  0  0  0
  -34.8301   77.7956  -44.0781 N   0  0  0  0  0  0  0  0  0  0  0  0
  -35.5250   77.3078  -42.9328 C   0  0  0  0  0  0  0  0  0  0  0  0
  -36.7857   76.5064  -43.1568 C   0  0  0  0  0  0  0  0  0  0  0  0
  -35.5263   75.8021  -42.7268 C   0  0  0  0  0  0  0  0  0  0  0  0
  -33.9891   79.2584  -45.5772 N   0  0  0  0  0  0  0  0  0  0  0  0
  -33.2326   78.2114  -46.2948 C   0  0  0  0  0  0  0  0  0  0  0  0
  -34.1093   77.3858  -47.2569 C   0  0  0  0  0  0  0  0  0  0  0  0
  -35.2166   78.1504  -47.8936 N   0  0  2  0  0  0  0  0  0  0  0  0
  -35.9891   77.2999  -48.8334 C   0  0  0  0  0  0  0  0  0  0  0  0
  -37.3516   77.9202  -48.8758 C   0  0  0  0  0  0  0  0  0  0  0  0
  -38.2315   77.8171  -47.8664 N   0  0  0  0  0  0  0  0  0  0  0  0
  -39.3025   78.4862  -48.3231 C   0  0  0  0  0  0  0  0  0  0  0  0
  -40.5497   78.6398  -47.5959 C   0  0  0  0  0  0  0  0  0  0  0  0
  -40.5419   78.8386  -46.2006 C   0  0  0  0  0  0  0  0  0  0  0  0
  -41.7557   79.0034  -45.5075 C   0  0  0  0  0  0  0  0  0  0  0  0
  -42.9811   78.9612  -46.2035 C   0  0  0  0  0  0  0  0  0  0  0  0
  -44.2818   79.1455  -45.4594 C   0  0  0  0  0  0  0  0  0  0  0  0
  -42.9888   78.7599  -47.5966 C   0  0  0  0  0  0  0  0  0  0  0  0
  -41.7762   78.6023  -48.2922 C   0  0  0  0  0  0  0  0  0  0  0  0
  -39.0922   79.0036  -49.5398 N   0  0  0  0  0  0  0  0  0  0  0  0
  -37.8149   78.6335  -49.9006 N   0  0  0  0  0  0  0  0  0  0  0  0
  -34.8003   79.4655  -48.4578 C   0  0  0  0  0  0  0  0  0  0  0  0
  -34.9714   80.5999  -47.4215 C   0  0  0  0  0  0  0  0  0  0  0  0
  -33.9573   80.5595  -46.2634 C   0  0  0  0  0  0  0  0  0  0  0  0
  1  2  2  0
  2  3  1  0
  2  7  1  0
  3  4  1  0
  4  5  1  0
  4  6  1  0
  5  6  1  0
  7  8  1  0
  7 26  1  0
  8  9  1  0
  9 10  1  0
 10 11  1  6
 10 24  1  0
 11 12  1  0
 12 13  1  0
 12 23  2  0
 13 14  1  0
 14 15  1  0
 14 22  2  0
 15 16  2  0
 15 21  1  0
 16 17  1  0
 17 18  2  0
 18 19  1  0
 18 20  1  0
 20 21  2  0
 22 23  1  0
 24 25  1  0
 25 26  1  0
M  CHG  1  10   1
M  END
>  <cluster>  (113) 
cluster_56569

>  <glide_score>  (113) 
-6.52964919262979

>  <mmgbsa_dG>  (113) 
-43.0875768100377

$$$$
No_4889
     RDKit          3D

 23 26  0  0  1  0  0  0  0  0999 V2000
  -35.0489   70.8551  -42.2486 C   0  0  0  0  0  0  0  0  0  0  0  0
  -34.3215   71.6742  -43.2074 N   0  0  0  0  0  0  0  0  0  0  0  0
  -34.6691   73.0284  -43.1919 C   0  0  0  0  0  0  0  0  0  0  0  0
  -35.6016   73.8461  -41.9799 S   0  0  0  0  0  0  0  0  0  0  0  0
  -35.4195   75.3038  -42.8076 N   0  0  0  0  0  0  0  0  0  0  0  0
  -34.7223   75.0987  -43.9427 C   0  0  0  0  0  0  0  0  0  0  0  0
  -34.6031   76.2094  -44.9635 C   0  0  0  0  0  0  0  0  0  0  0  0
  -35.9222   76.4011  -45.5962 N   0  0  2  0  0  0  0  0  0  0  0  0
  -36.0099   76.2585  -47.0550 C   0  0  0  0  0  0  0  0  0  0  0  0
  -37.3077   76.9902  -47.4439 C   0  0  0  0  0  0  0  0  0  0  0  0
  -37.6091   77.8971  -46.3307 N   0  0  0  0  0  0  0  0  0  0  0  0
  -38.6208   78.7822  -46.1734 C   0  0  0  0  0  0  0  0  0  0  0  0
  -38.6306   79.5620  -45.2203 O   0  0  0  0  0  0  0  0  0  0  0  0
  -39.7931   78.7159  -47.1064 C   0  0  0  0  0  0  0  0  0  0  0  0
  -39.7452   78.6023  -48.4835 C   0  0  0  0  0  0  0  0  0  0  0  0
  -41.3396   78.6026  -49.2222 S   0  0  0  0  0  0  0  0  0  0  0  0
  -42.0545   78.8126  -47.6614 C   0  0  0  0  0  0  0  0  0  0  0  0
  -41.1455   78.8691  -46.6688 C   0  0  0  0  0  0  0  0  0  0  0  0
  -41.8201   79.1030  -45.3611 C   0  0  0  0  0  0  0  0  0  0  0  0
  -43.2853   79.4387  -45.7620 C   0  0  0  0  0  0  0  0  0  0  0  0
  -43.4555   79.0106  -47.2418 C   0  0  0  0  0  0  0  0  0  0  0  0
  -36.6310   77.6478  -45.2841 C   0  0  0  0  0  0  0  0  0  0  0  0
  -34.2704   73.8450  -44.1598 N   0  0  0  0  0  0  0  0  0  0  0  0
  1  2  1  0
  2  3  1  0
  3  4  1  0
  3 23  2  0
  4  5  1  0
  5  6  2  0
  6  7  1  0
  6 23  1  0
  8  7  1  6
  8  9  1  0
  8 22  1  0
  9 10  1  0
 10 11  1  0
 11 12  1  0
 11 22  1  0
 12 13  2  0
 12 14  1  0
 14 15  2  0
 14 18  1  0
 15 16  1  0
 16 17  1  0
 17 18  2  0
 17 21  1  0
 18 19  1  0
 19 20  1  0
 20 21  1  0
M  CHG  1   8   1
M  END
>  <cluster>  (114) 
cluster_20717

>  <glide_score>  (114) 
-6.57339527797079

>  <mmgbsa_dG>  (114) 
-43.0026290285896

$$$$
No_4641
     RDKit          3D

 20 21  0  0  1  0  0  0  0  0999 V2000
  -44.7507   78.6526  -46.5345 C   0  0  0  0  0  0  0  0  0  0  0  0
  -43.8712   79.7571  -47.1093 C   0  0  0  0  0  0  0  0  0  0  0  0
  -42.5349   79.2615  -47.3896 N   0  0  0  0  0  0  0  0  0  0  0  0
  -42.0462   79.0012  -48.6612 C   0  0  0  0  0  0  0  0  0  0  0  0
  -40.7439   78.6011  -48.5548 C   0  0  0  0  0  0  0  0  0  0  0  0
  -40.4382   78.6024  -47.1643 C   0  0  0  0  0  0  0  0  0  0  0  0
  -39.2171   78.2389  -46.5395 N   0  0  0  0  0  0  0  0  0  0  0  0
  -38.0826   77.8069  -47.1168 C   0  0  0  0  0  0  0  0  0  0  0  0
  -37.9135   77.7236  -48.3330 O   0  0  0  0  0  0  0  0  0  0  0  0
  -36.9519   77.4379  -46.1437 C   0  0  1  0  0  0  0  0  0  0  0  0
  -36.0043   76.3853  -46.7553 C   0  0  0  0  0  0  0  0  0  0  0  0
  -36.2362   78.6566  -45.7348 N   0  0  0  0  0  0  0  0  0  0  0  0
  -35.3010   78.4509  -44.6361 C   0  0  0  0  0  0  0  0  0  0  0  0
  -34.7691   79.7402  -44.0966 C   0  0  0  0  0  0  0  0  0  0  0  0
  -35.0401   81.0530  -44.4252 C   0  0  0  0  0  0  0  0  0  0  0  0
  -34.3031   81.9113  -43.6079 N   0  0  0  0  0  0  0  0  0  0  0  0
  -33.5711   81.0951  -42.8552 C   0  0  0  0  0  0  0  0  0  0  0  0
  -33.8223   79.8051  -43.0858 N   0  0  0  0  0  0  0  0  0  0  0  0
  -41.5342   79.0028  -46.4560 C   0  0  0  0  0  0  0  0  0  0  0  0
  -41.7276   79.2148  -44.9882 C   0  0  0  0  0  0  0  0  0  0  0  0
  1  2  1  0
  2  3  1  0
  3  4  1  0
  3 19  1  0
  4  5  2  0
  5  6  1  0
  6  7  1  0
  6 19  2  0
  7  8  1  0
  8  9  2  0
  8 10  1  0
 10 11  1  6
 10 12  1  0
 12 13  1  0
 13 14  1  0
 14 15  2  0
 14 18  1  0
 15 16  1  0
 16 17  2  0
 17 18  1  0
 19 20  1  0
M  END
>  <cluster>  (115) 
cluster_36297

>  <glide_score>  (115) 
-6.86150097474726

>  <mmgbsa_dG>  (115) 
-42.9711092107755

$$$$
No_3329
     RDKit          3D

 22 24  0  0  1  0  0  0  0  0999 V2000
  -35.5232   76.4039  -45.7079 O   0  0  0  0  0  0  0  0  0  0  0  0
  -35.3379   77.2586  -44.8412 C   0  0  0  0  0  0  0  0  0  0  0  0
  -35.5094   76.9254  -43.3590 C   0  0  0  0  0  0  0  0  0  0  0  0
  -35.8224   75.4870  -43.2066 N   0  0  0  0  0  0  0  0  0  0  0  0
  -34.7190   74.5786  -42.8960 C   0  0  0  0  0  0  0  0  0  0  0  0
  -35.6924   73.8136  -42.0075 C   0  0  0  0  0  0  0  0  0  0  0  0
  -36.5135   75.0976  -41.9865 C   0  0  0  0  0  0  0  0  0  0  0  0
  -34.8520   78.8935  -45.2935 S   0  0  0  0  0  0  0  0  0  0  0  0
  -34.6588   79.6742  -44.0596 O   0  0  0  0  0  0  0  0  0  0  0  0
  -33.7599   78.7796  -46.2710 O   0  0  0  0  0  0  0  0  0  0  0  0
  -36.2216   79.5646  -46.1255 N   0  0  0  0  0  0  0  0  0  0  0  0
  -37.2549   80.3019  -45.3814 C   0  0  0  0  0  0  0  0  0  0  0  0
  -38.5267   79.4660  -45.2076 C   0  0  0  0  0  0  0  0  0  0  0  0
  -39.0126   79.0029  -46.5013 N   0  0  0  0  0  0  0  0  0  0  0  0
  -40.4024   78.8578  -46.7344 C   0  0  0  0  0  0  0  0  0  0  0  0
  -41.3665   79.0028  -45.7019 C   0  0  0  0  0  0  0  0  0  0  0  0
  -42.7372   78.9094  -46.0040 C   0  0  0  0  0  0  0  0  0  0  0  0
  -43.1144   78.6568  -47.3329 C   0  0  0  0  0  0  0  0  0  0  0  0
  -42.2228   78.4915  -48.3295 N   0  0  0  0  0  0  0  0  0  0  0  0
  -40.9104   78.6025  -48.0330 C   0  0  0  0  0  0  0  0  0  0  0  0
  -38.0247   78.1998  -47.2249 C   0  0  0  0  0  0  0  0  0  0  0  0
  -36.6969   78.9780  -47.3999 C   0  0  0  0  0  0  0  0  0  0  0  0
  1  2  2  0
  2  3  1  0
  2  8  1  0
  3  4  1  0
  4  5  1  0
  4  7  1  0
  5  6  1  0
  6  7  1  0
  8  9  2  0
  8 10  2  0
  8 11  1  0
 11 12  1  0
 11 22  1  0
 12 13  1  0
 13 14  1  0
 14 15  1  0
 14 21  1  0
 15 16  2  0
 15 20  1  0
 16 17  1  0
 17 18  2  0
 18 19  1  0
 19 20  2  0
 21 22  1  0
M  CHG  1   4   1
M  END
>  <cluster>  (116) 
cluster_56089

>  <glide_score>  (116) 
-6.84080745505935

>  <mmgbsa_dG>  (116) 
-42.9265859368024

$$$$
No_4798
     RDKit          3D

 26 28  0  0  1  0  0  0  0  0999 V2000
  -34.9578   75.6403  -47.3969 C   0  0  0  0  0  0  0  0  0  0  0  0
  -35.3491   76.9554  -46.6983 C   0  0  2  0  0  0  0  0  0  0  0  0
  -35.6861   76.6023  -45.3233 N   0  0  0  0  0  0  0  0  0  0  0  0
  -35.6317   77.3869  -44.2364 C   0  0  0  0  0  0  0  0  0  0  0  0
  -35.2289   78.5472  -44.2604 O   0  0  0  0  0  0  0  0  0  0  0  0
  -36.1037   76.7774  -42.9100 C   0  0  0  0  0  0  0  0  0  0  0  0
  -35.9205   75.3034  -42.8079 N   0  0  0  0  0  0  0  0  0  0  0  0
  -36.5038   74.7034  -41.6077 C   0  0  0  0  0  0  0  0  0  0  0  0
  -35.7998   73.3520  -41.4426 C   0  0  0  0  0  0  0  0  0  0  0  0
  -34.4117   73.5555  -42.0433 C   0  0  0  0  0  0  0  0  0  0  0  0
  -34.5158   74.8460  -42.8633 C   0  0  0  0  0  0  0  0  0  0  0  0
  -36.4938   77.6736  -47.4276 C   0  0  0  0  0  0  0  0  0  0  0  0
  -37.7546   77.8027  -46.7996 C   0  0  0  0  0  0  0  0  0  0  0  0
  -38.7839   78.4987  -47.4434 C   0  0  0  0  0  0  0  0  0  0  0  0
  -40.0469   78.8495  -46.6844 C   0  0  0  0  0  0  0  0  0  0  0  0
  -41.3194   78.7075  -47.5253 C   0  0  0  0  0  0  0  0  0  0  0  0
  -42.5360   78.9323  -46.7762 N   0  0  0  0  0  0  0  0  0  0  0  0
  -42.7145   79.3701  -45.4683 C   0  0  0  0  0  0  0  0  0  0  0  0
  -44.0732   79.4026  -45.2539 C   0  0  0  0  0  0  0  0  0  0  0  0
  -44.7402   79.0027  -46.4077 N   0  0  0  0  0  0  0  0  0  0  0  0
  -43.7632   78.7561  -47.2625 C   0  0  0  0  0  0  0  0  0  0  0  0
  -38.6560   79.0029  -48.6826 N   0  0  0  0  0  0  0  0  0  0  0  0
  -37.4691   78.8728  -49.3097 C   0  0  0  0  0  0  0  0  0  0  0  0
  -37.4167   79.4827  -50.6992 C   0  0  0  0  0  0  0  0  0  0  0  0
  -36.3399   78.2497  -48.7202 C   0  0  0  0  0  0  0  0  0  0  0  0
  -35.0140   78.2342  -49.4747 C   0  0  0  0  0  0  0  0  0  0  0  0
  2  1  1  6
  2  3  1  0
  2 12  1  0
  3  4  1  0
  4  5  2  0
  4  6  1  0
  6  7  1  0
  7  8  1  0
  7 11  1  0
  8  9  1  0
  9 10  1  0
 10 11  1  0
 12 13  2  0
 12 25  1  0
 13 14  1  0
 14 15  1  0
 14 22  2  0
 15 16  1  0
 16 17  1  0
 17 18  1  0
 17 21  1  0
 18 19  2  0
 19 20  1  0
 20 21  2  0
 22 23  1  0
 23 24  1  0
 23 25  2  0
 25 26  1  0
M  CHG  1   7   1
M  END
>  <cluster>  (117) 
cluster_105042

>  <glide_score>  (117) 
-7.75299323023287

>  <mmgbsa_dG>  (117) 
-42.9157149815219

$$$$
No_1740
     RDKit          3D

 24 26  0  0  1  0  0  0  0  0999 V2000
  -35.9000   77.2513  -43.9284 N   0  0  0  0  0  0  0  0  0  0  0  0
  -35.2811   78.3176  -44.4361 C   0  0  0  0  0  0  0  0  0  0  0  0
  -35.5216   79.4446  -44.0082 O   0  0  0  0  0  0  0  0  0  0  0  0
  -34.4345   78.0618  -45.4668 N   0  0  0  0  0  0  0  0  0  0  0  0
  -34.0349   76.7237  -45.9356 C   0  0  0  0  0  0  0  0  0  0  0  0
  -35.0071   76.1383  -46.9812 C   0  0  0  0  0  0  0  0  0  0  0  0
  -35.6662   77.1454  -47.8610 N   0  0  2  0  0  0  0  0  0  0  0  0
  -36.5379   76.4881  -48.8669 C   0  0  0  0  0  0  0  0  0  0  0  0
  -37.6760   77.3959  -49.2886 C   0  0  0  0  0  0  0  0  0  0  0  0
  -37.6409   77.8637  -50.5504 N   0  0  0  0  0  0  0  0  0  0  0  0
  -38.6735   78.6256  -50.9688 C   0  0  0  0  0  0  0  0  0  0  0  0
  -39.7889   78.9488  -50.1637 C   0  0  0  0  0  0  0  0  0  0  0  0
  -40.7996   79.7495  -50.7048 N   0  0  0  0  0  0  0  0  0  0  0  0
  -39.8177   78.4505  -48.8332 C   0  0  0  0  0  0  0  0  0  0  0  0
  -40.9291   78.6832  -47.8979 C   0  0  0  0  0  0  0  0  0  0  0  0
  -42.2811   78.8581  -48.1191 C   0  0  0  0  0  0  0  0  0  0  0  0
  -42.8744   79.0859  -46.8849 N   0  0  0  0  0  0  0  0  0  0  0  0
  -44.2627   79.3727  -46.6224 C   0  0  0  0  0  0  0  0  0  0  0  0
  -41.8865   79.0031  -45.9893 C   0  0  0  0  0  0  0  0  0  0  0  0
  -40.6946   78.7655  -46.5224 N   0  0  0  0  0  0  0  0  0  0  0  0
  -38.7222   77.6770  -48.3961 C   0  0  0  0  0  0  0  0  0  0  0  0
  -34.7481   78.1617  -48.4479 C   0  0  0  0  0  0  0  0  0  0  0  0
  -34.6124   79.4002  -47.5377 C   0  0  0  0  0  0  0  0  0  0  0  0
  -33.8220   79.1495  -46.2418 C   0  0  0  0  0  0  0  0  0  0  0  0
  1  2  1  0
  2  3  2  0
  2  4  1  0
  4  5  1  0
  4 24  1  0
  5  6  1  0
  6  7  1  0
  7  8  1  6
  7 22  1  0
  8  9  1  0
  9 10  2  0
  9 21  1  0
 10 11  1  0
 11 12  2  0
 12 13  1  0
 12 14  1  0
 14 15  1  0
 14 21  2  0
 15 16  2  0
 15 20  1  0
 16 17  1  0
 17 18  1  0
 17 19  1  0
 19 20  2  0
 22 23  1  0
 23 24  1  0
M  CHG  1   7   1
M  END
>  <cluster>  (118) 
cluster_86156

>  <glide_score>  (118) 
-6.81836441438136

>  <mmgbsa_dG>  (118) 
-42.8484141478475

$$$$
No_2535
     RDKit          3D

 23 24  0  0  1  0  0  0  0  0999 V2000
  -36.2596   76.9480  -44.9967 C   0  0  0  0  0  0  0  0  0  0  0  0
  -35.8242   78.3854  -44.7771 C   0  0  0  0  0  0  0  0  0  0  0  0
  -34.7093   78.5463  -44.0321 N   0  0  0  0  0  0  0  0  0  0  0  0
  -34.3144   79.7930  -43.8270 C   0  0  0  0  0  0  0  0  0  0  0  0
  -33.1224   79.9808  -43.2076 N   0  0  0  0  0  0  0  0  0  0  0  0
  -34.9264   80.9040  -44.1945 N   0  0  0  0  0  0  0  0  0  0  0  0
  -35.9971   80.7759  -45.0066 C   0  0  0  0  0  0  0  0  0  0  0  0
  -36.5019   82.1116  -45.5720 C   0  0  1  0  0  0  0  0  0  0  0  0
  -36.7129   83.1573  -44.4459 C   0  0  0  0  0  0  0  0  0  0  0  0
  -35.7075   82.6017  -46.7217 N   0  0  0  0  0  0  0  0  0  0  0  0
  -34.2775   82.7747  -46.4797 C   0  0  0  0  0  0  0  0  0  0  0  0
  -36.1957   83.8583  -47.2792 C   0  0  0  0  0  0  0  0  0  0  0  0
  -36.5202   79.4927  -45.3222 C   0  0  0  0  0  0  0  0  0  0  0  0
  -37.7018   79.2890  -46.2158 C   0  0  0  0  0  0  0  0  0  0  0  0
  -37.5469   79.2309  -47.4348 O   0  0  0  0  0  0  0  0  0  0  0  0
  -38.8745   79.1707  -45.5733 N   0  0  0  0  0  0  0  0  0  0  0  0
  -40.1611   79.0026  -46.1418 C   0  0  0  0  0  0  0  0  0  0  0  0
  -40.4855   78.6037  -47.4678 C   0  0  0  0  0  0  0  0  0  0  0  0
  -41.8512   78.6290  -47.5584 C   0  0  0  0  0  0  0  0  0  0  0  0
  -42.7368   78.3631  -48.7258 C   0  0  0  0  0  0  0  0  0  0  0  0
  -42.3655   79.0030  -46.3194 N   0  0  0  0  0  0  0  0  0  0  0  0
  -43.7667   79.1840  -45.9922 C   0  0  0  0  0  0  0  0  0  0  0  0
  -41.3145   79.2065  -45.4417 C   0  0  0  0  0  0  0  0  0  0  0  0
  1  2  1  0
  2  3  2  0
  2 13  1  0
  3  4  1  0
  4  5  1  0
  4  6  2  0
  6  7  1  0
  7  8  1  0
  7 13  2  0
  8  9  1  1
  8 10  1  0
 10 11  1  0
 10 12  1  0
 13 14  1  0
 14 15  2  0
 14 16  1  0
 16 17  1  0
 17 18  1  0
 17 23  2  0
 18 19  2  0
 19 20  1  0
 19 21  1  0
 21 22  1  0
 21 23  1  0
M  END
>  <cluster>  (119) 
cluster_86951

>  <glide_score>  (119) 
-6.58170642689752

>  <mmgbsa_dG>  (119) 
-42.8450460697422

$$$$
No_2595
     RDKit          3D

 25 27  0  0  1  0  0  0  0  0999 V2000
  -44.5896   80.1963  -51.9022 C   0  0  0  0  0  0  0  0  0  0  0  0
  -43.3209   79.3329  -51.9199 C   0  0  0  0  0  0  0  0  0  0  0  0
  -42.3028   79.8640  -52.9409 C   0  0  0  0  0  0  0  0  0  0  0  0
  -42.7192   79.2859  -50.5885 N   0  0  0  0  0  0  0  0  0  0  0  0
  -41.9222   78.2973  -50.1487 C   0  0  0  0  0  0  0  0  0  0  0  0
  -41.7055   77.2578  -50.7740 O   0  0  0  0  0  0  0  0  0  0  0  0
  -41.2312   78.5570  -48.8482 C   0  0  0  0  0  0  0  0  0  0  0  0
  -39.8236   78.6022  -48.7972 C   0  0  0  0  0  0  0  0  0  0  0  0
  -39.1301   78.8803  -47.6733 N   0  0  0  0  0  0  0  0  0  0  0  0
  -39.8161   79.0730  -46.5244 C   0  0  0  0  0  0  0  0  0  0  0  0
  -39.0238   79.5170  -45.2973 C   0  0  0  0  0  0  0  0  0  0  0  0
  -37.5609   79.1732  -45.2607 C   0  0  0  0  0  0  0  0  0  0  0  0
  -36.5699   80.0429  -45.0796 N   0  0  0  0  0  0  0  0  0  0  0  0
  -35.3862   79.2901  -45.0667 C   0  0  0  0  0  0  0  0  0  0  0  0
  -34.1106   79.8966  -44.8907 N   0  0  0  0  0  0  0  0  0  0  0  0
  -34.0083   81.3540  -44.9300 C   0  0  0  0  0  0  0  0  0  0  0  0
  -32.7303   81.8400  -44.2183 C   0  0  0  0  0  0  0  0  0  0  0  0
  -31.5827   81.2277  -44.7993 O   0  0  0  0  0  0  0  0  0  0  0  0
  -31.6378   79.8105  -44.6664 C   0  0  0  0  0  0  0  0  0  0  0  0
  -32.8891   79.2511  -45.3696 C   0  0  0  0  0  0  0  0  0  0  0  0
  -35.7224   77.9528  -45.2249 C   0  0  0  0  0  0  0  0  0  0  0  0
  -34.9229   76.6899  -45.2744 C   0  0  0  0  0  0  0  0  0  0  0  0
  -37.1029   77.9221  -45.3388 N   0  0  0  0  0  0  0  0  0  0  0  0
  -41.2254   79.0023  -46.4637 C   0  0  0  0  0  0  0  0  0  0  0  0
  -41.9474   78.7498  -47.6487 C   0  0  0  0  0  0  0  0  0  0  0  0
  1  2  1  0
  2  3  1  0
  2  4  1  0
  4  5  1  0
  5  6  2  0
  5  7  1  0
  7  8  2  0
  7 25  1  0
  8  9  1  0
  9 10  2  0
 10 11  1  0
 10 24  1  0
 11 12  1  0
 12 23  1  0
 12 13  2  0
 13 14  1  0
 14 15  1  0
 14 21  2  0
 15 16  1  0
 15 20  1  0
 16 17  1  0
 17 18  1  0
 18 19  1  0
 19 20  1  0
 21 22  1  0
 21 23  1  0
 24 25  2  0
M  END
>  <cluster>  (120) 
cluster_92287

>  <glide_score>  (120) 
-6.62005221331842

>  <mmgbsa_dG>  (120) 
-42.8063659173495

$$$$
No_4157
     RDKit          3D

 25 27  0  0  1  0  0  0  0  0999 V2000
  -39.4883   79.6980  -50.3548 C   0  0  0  0  0  0  0  0  0  0  0  0
  -39.5236   79.0139  -49.0573 N   0  0  0  0  0  0  0  0  0  0  0  0
  -40.8770   78.4612  -48.8300 C   0  0  0  0  0  0  0  0  0  0  0  0
  -41.4728   78.6841  -47.4667 C   0  0  0  0  0  0  0  0  0  0  0  0
  -43.2171   78.6025  -47.2088 S   0  0  0  0  0  0  0  0  0  0  0  0
  -42.8658   79.0089  -45.5423 C   0  0  0  0  0  0  0  0  0  0  0  0
  -41.5755   79.1741  -45.2504 N   0  0  0  0  0  0  0  0  0  0  0  0
  -40.7723   79.0028  -46.3690 N   0  0  0  0  0  0  0  0  0  0  0  0
  -38.3575   78.1024  -48.9374 C   0  0  1  0  0  0  0  0  0  0  0  0
  -37.9844   77.6964  -47.5152 C   0  0  0  0  0  0  0  0  0  0  0  0
  -37.2446   76.3727  -47.6953 C   0  0  0  0  0  0  0  0  0  0  0  0
  -37.7732   75.7914  -48.9339 N   0  0  0  0  0  0  0  0  0  0  0  0
  -37.6040   74.4941  -49.3113 C   0  0  0  0  0  0  0  0  0  0  0  0
  -37.9333   74.0541  -50.4150 O   0  0  0  0  0  0  0  0  0  0  0  0
  -37.0221   73.4856  -48.3072 C   0  0  0  0  0  0  0  0  0  0  0  0
  -35.6005   73.3773  -48.4281 O   0  0  0  0  0  0  0  0  0  0  0  0
  -35.0631   72.4786  -49.2896 C   0  0  0  0  0  0  0  0  0  0  0  0
  -33.7351   72.3735  -49.2077 N   0  0  0  0  0  0  0  0  0  0  0  0
  -33.1324   71.5339  -50.0736 C   0  0  0  0  0  0  0  0  0  0  0  0
  -33.8700   70.7526  -50.9809 C   0  0  0  0  0  0  0  0  0  0  0  0
  -33.1974   69.8017  -51.9489 C   0  0  0  0  0  0  0  0  0  0  0  0
  -35.2670   70.9178  -50.9543 C   0  0  0  0  0  0  0  0  0  0  0  0
  -35.8586   71.7749  -50.1006 N   0  0  0  0  0  0  0  0  0  0  0  0
  -38.4212   76.7412  -49.6491 C   0  0  0  0  0  0  0  0  0  0  0  0
  -39.0214   76.5902  -50.7159 O   0  0  0  0  0  0  0  0  0  0  0  0
  1  2  1  0
  2  3  1  0
  9  2  1  1
  3  4  1  0
  4  5  1  0
  4  8  2  0
  5  6  1  0
  6  7  2  0
  7  8  1  0
  9 10  1  0
  9 24  1  0
 10 11  1  0
 11 12  1  0
 12 13  1  0
 12 24  1  0
 13 14  2  0
 13 15  1  0
 15 16  1  0
 16 17  1  0
 17 18  2  0
 17 23  1  0
 18 19  1  0
 19 20  2  0
 20 21  1  0
 20 22  1  0
 22 23  2  0
 24 25  2  0
M  END
>  <cluster>  (121) 
cluster_104401

>  <glide_score>  (121) 
-6.75634208427165

>  <mmgbsa_dG>  (121) 
-42.7251970135258

$$$$
No_2214
     RDKit          3D

 25 27  0  0  1  0  0  0  0  0999 V2000
  -44.6756   79.4027  -46.5212 C   0  0  0  0  0  0  0  0  0  0  0  0
  -43.2655   79.0824  -46.8520 C   0  0  0  0  0  0  0  0  0  0  0  0
  -42.7243   78.8534  -48.0870 C   0  0  0  0  0  0  0  0  0  0  0  0
  -41.3259   78.6031  -48.0392 C   0  0  0  0  0  0  0  0  0  0  0  0
  -40.8008   78.6502  -46.7677 C   0  0  0  0  0  0  0  0  0  0  0  0
  -39.5293   78.4519  -46.3473 N   0  0  0  0  0  0  0  0  0  0  0  0
  -38.4161   78.5799  -47.0806 C   0  0  0  0  0  0  0  0  0  0  0  0
  -38.3957   79.0027  -48.2367 O   0  0  0  0  0  0  0  0  0  0  0  0
  -37.3169   78.2187  -46.4057 N   0  0  0  0  0  0  0  0  0  0  0  0
  -35.9524   78.2990  -46.9248 C   0  0  0  0  0  0  0  0  0  0  0  0
  -35.7341   77.4475  -48.1917 C   0  0  0  0  0  0  0  0  0  0  0  0
  -35.9987   76.0389  -47.9000 N   0  0  0  0  0  0  0  0  0  0  0  0
  -36.8199   75.4395  -48.9508 C   0  0  0  0  0  0  0  0  0  0  0  0
  -37.1284   73.9763  -48.5942 C   0  0  0  0  0  0  0  0  0  0  0  0
  -35.8649   73.2359  -48.4654 N   0  0  0  0  0  0  0  0  0  0  0  0
  -35.4401   72.2151  -49.2516 C   0  0  0  0  0  0  0  0  0  0  0  0
  -34.2911   71.7684  -49.2071 O   0  0  0  0  0  0  0  0  0  0  0  0
  -36.4006   71.6229  -50.2307 C   0  0  0  0  0  0  0  0  0  0  0  0
  -36.2093   71.4616  -51.5377 N   0  0  0  0  0  0  0  0  0  0  0  0
  -37.3581   70.8250  -52.0043 C   0  0  0  0  0  0  0  0  0  0  0  0
  -38.2222   70.6041  -50.9565 C   0  0  0  0  0  0  0  0  0  0  0  0
  -37.5748   71.1038  -49.8382 N   0  0  0  0  0  0  0  0  0  0  0  0
  -35.0210   73.8309  -47.4208 C   0  0  0  0  0  0  0  0  0  0  0  0
  -34.7406   75.3079  -47.7476 C   0  0  0  0  0  0  0  0  0  0  0  0
  -42.0541   79.0028  -45.6075 S   0  0  0  0  0  0  0  0  0  0  0  0
  1  2  1  0
  2  3  2  0
  2 25  1  0
  3  4  1  0
  4  5  2  0
  5  6  1  0
  5 25  1  0
  6  7  1  0
  7  8  2  0
  7  9  1  0
  9 10  1  0
 10 11  1  0
 11 12  1  0
 12 13  1  0
 12 24  1  0
 13 14  1  0
 14 15  1  0
 15 16  1  0
 15 23  1  0
 16 17  2  0
 16 18  1  0
 18 19  2  0
 18 22  1  0
 19 20  1  0
 20 21  2  0
 21 22  1  0
 23 24  1  0
M  END
>  <cluster>  (122) 
cluster_123562

>  <glide_score>  (122) 
-6.75171667840524

>  <mmgbsa_dG>  (122) 
-42.6672712729051

$$$$
No_2162
     RDKit          3D

 21 22  0  0  1  0  0  0  0  0999 V2000
  -36.7938   75.9646  -47.8221 C   0  0  0  0  0  0  0  0  0  0  0  0
  -35.7459   76.5269  -46.8506 C   0  0  0  0  0  0  0  0  0  0  0  0
  -36.3431   77.3940  -45.8000 N   0  0  1  0  0  0  0  0  0  0  0  0
  -35.4763   77.5006  -44.5958 C   0  0  0  0  0  0  0  0  0  0  0  0
  -35.6293   76.3005  -43.6833 C   0  0  0  0  0  0  0  0  0  0  0  0
  -34.7222   75.2248  -43.6970 C   0  0  0  0  0  0  0  0  0  0  0  0
  -34.9062   74.1478  -42.8104 C   0  0  0  0  0  0  0  0  0  0  0  0
  -36.0459   74.1617  -41.9878 C   0  0  0  0  0  0  0  0  0  0  0  0
  -36.9471   75.1648  -42.0006 N   0  0  0  0  0  0  0  0  0  0  0  0
  -36.7223   76.2146  -42.8076 C   0  0  0  0  0  0  0  0  0  0  0  0
  -36.7823   78.7296  -46.2994 C   0  0  0  0  0  0  0  0  0  0  0  0
  -38.2421   79.0424  -45.9128 C   0  0  0  0  0  0  0  0  0  0  0  0
  -39.3297   78.4208  -47.2855 S   0  0  0  0  0  0  0  0  0  0  0  0
  -39.1307   79.4026  -48.4412 O   0  0  0  0  0  0  0  0  0  0  0  0
  -40.9983   78.7639  -46.6020 C   0  0  0  0  0  0  0  0  0  0  0  0
  -41.2726   79.0142  -45.2908 C   0  0  0  0  0  0  0  0  0  0  0  0
  -42.6795   79.1836  -45.2070 C   0  0  0  0  0  0  0  0  0  0  0  0
  -43.2159   79.0145  -46.4520 C   0  0  0  0  0  0  0  0  0  0  0  0
  -44.6470   79.0764  -46.8640 C   0  0  0  0  0  0  0  0  0  0  0  0
  -42.1731   78.7562  -47.3372 N   0  0  0  0  0  0  0  0  0  0  0  0
  -42.2907   78.5110  -48.7644 C   0  0  0  0  0  0  0  0  0  0  0  0
  1  2  1  0
  3  2  1  6
  3  4  1  0
  3 11  1  0
  4  5  1  0
  5  6  2  0
  5 10  1  0
  6  7  1  0
  7  8  2  0
  8  9  1  0
  9 10  2  0
 11 12  1  0
 13 12  1  1
 13 14  2  0
 13 15  1  0
 15 16  2  0
 15 20  1  0
 16 17  1  0
 17 18  2  0
 18 19  1  0
 18 20  1  0
 20 21  1  0
M  CHG  1   3   1
M  END
>  <cluster>  (123) 
cluster_44370

>  <glide_score>  (123) 
-6.74294992545445

>  <mmgbsa_dG>  (123) 
-42.6475216761974

$$$$
No_4548
     RDKit          3D

 26 29  0  0  1  0  0  0  0  0999 V2000
  -44.8300   79.1758  -46.6104 C   0  0  0  0  0  0  0  0  0  0  0  0
  -43.3287   79.0064  -46.6746 C   0  0  0  0  0  0  0  0  0  0  0  0
  -42.5475   79.1273  -45.5092 C   0  0  0  0  0  0  0  0  0  0  0  0
  -41.1469   79.0031  -45.5828 C   0  0  0  0  0  0  0  0  0  0  0  0
  -40.5109   78.7550  -46.8198 C   0  0  0  0  0  0  0  0  0  0  0  0
  -39.0195   78.6016  -46.9200 C   0  0  0  0  0  0  0  0  0  0  0  0
  -38.5468   77.9033  -47.8173 O   0  0  0  0  0  0  0  0  0  0  0  0
  -38.2964   79.3103  -46.0286 N   0  0  0  0  0  0  0  0  0  0  0  0
  -36.9357   79.3938  -45.8431 C   0  0  0  0  0  0  0  0  0  0  0  0
  -36.5738   80.1622  -44.8078 N   0  0  0  0  0  0  0  0  0  0  0  0
  -35.2770   80.2095  -44.4611 N   0  0  0  0  0  0  0  0  0  0  0  0
  -34.3658   79.5215  -45.1932 C   0  0  0  0  0  0  0  0  0  0  0  0
  -32.9590   79.5509  -44.6659 C   0  0  0  0  0  0  0  0  0  0  0  0
  -31.7984   80.0433  -45.5111 C   0  0  0  0  0  0  0  0  0  0  0  0
  -32.2608   80.8525  -44.3279 C   0  0  0  0  0  0  0  0  0  0  0  0
  -34.7888   78.7764  -46.3197 C   0  0  0  0  0  0  0  0  0  0  0  0
  -33.8472   77.9883  -47.2186 C   0  0  0  0  0  0  0  0  0  0  0  0
  -33.5224   76.6431  -46.7460 N   0  0  0  0  0  0  0  0  0  0  0  0
  -34.6953   75.7646  -46.7199 C   0  0  0  0  0  0  0  0  0  0  0  0
  -34.3395   74.3243  -46.3100 C   0  0  0  0  0  0  0  0  0  0  0  0
  -33.3312   73.8036  -47.1690 O   0  0  0  0  0  0  0  0  0  0  0  0
  -32.1603   74.6153  -47.1880 C   0  0  0  0  0  0  0  0  0  0  0  0
  -32.5108   76.0468  -47.6091 C   0  0  0  0  0  0  0  0  0  0  0  0
  -36.0978   78.7217  -46.6421 N   0  0  0  0  0  0  0  0  0  0  0  0
  -41.3087   78.6028  -47.9779 C   0  0  0  0  0  0  0  0  0  0  0  0
  -42.7065   78.7388  -47.9081 C   0  0  0  0  0  0  0  0  0  0  0  0
  1  2  1  0
  2  3  2  0
  2 26  1  0
  3  4  1  0
  4  5  2  0
  5  6  1  0
  5 25  1  0
  6  7  2  0
  6  8  1  0
  8  9  1  0
  9 10  2  0
  9 24  1  0
 10 11  1  0
 11 12  2  0
 12 13  1  0
 12 16  1  0
 13 14  1  0
 13 15  1  0
 14 15  1  0
 16 17  1  0
 16 24  2  0
 17 18  1  0
 18 19  1  0
 18 23  1  0
 19 20  1  0
 20 21  1  0
 21 22  1  0
 22 23  1  0
 25 26  2  0
M  END
>  <cluster>  (124) 
cluster_73136

>  <glide_score>  (124) 
-6.89924100437323

>  <mmgbsa_dG>  (124) 
-42.6180655706412

$$$$
No_4349
     RDKit          3D

 20 22  0  0  1  0  0  0  0  0999 V2000
  -34.7220   82.6021  -44.0078 O   0  0  0  0  0  0  0  0  0  0  0  0
  -35.2414   82.7485  -45.1150 C   0  0  0  0  0  0  0  0  0  0  0  0
  -36.3764   81.8470  -45.6095 C   0  0  0  0  0  0  0  0  0  0  0  0
  -36.6293   80.6451  -44.8079 N   0  0  0  0  0  0  0  0  0  0  0  0
  -35.6047   79.6191  -45.0179 C   0  0  0  0  0  0  0  0  0  0  0  0
  -36.0760   78.7916  -46.2249 C   0  0  0  0  0  0  0  0  0  0  0  0
  -37.5176   78.9549  -46.2582 N   0  0  0  0  0  0  0  0  0  0  0  0
  -38.3417   78.3321  -47.1288 C   0  0  0  0  0  0  0  0  0  0  0  0
  -37.9137   77.5948  -48.0143 O   0  0  0  0  0  0  0  0  0  0  0  0
  -39.7999   78.5933  -47.0656 C   0  0  0  0  0  0  0  0  0  0  0  0
  -40.7626   78.6027  -48.0411 C   0  0  0  0  0  0  0  0  0  0  0  0
  -42.0292   78.8144  -47.4138 C   0  0  0  0  0  0  0  0  0  0  0  0
  -41.8009   78.9296  -46.0775 C   0  0  0  0  0  0  0  0  0  0  0  0
  -40.4556   78.7710  -45.8657 N   0  0  0  0  0  0  0  0  0  0  0  0
  -42.8128   79.1174  -45.0079 C   0  0  0  0  0  0  0  0  0  0  0  0
  -44.1315   79.6134  -45.6227 C   0  0  0  0  0  0  0  0  0  0  0  0
  -44.5063   78.8454  -46.9093 C   0  0  0  0  0  0  0  0  0  0  0  0
  -43.4085   78.8873  -48.0057 C   0  0  0  0  0  0  0  0  0  0  0  0
  -37.8317   79.9632  -45.2607 C   0  0  0  0  0  0  0  0  0  0  0  0
  -34.8180   83.8823  -46.0396 C   0  0  0  0  0  0  0  0  0  0  0  0
  1  2  2  0
  2  3  1  0
  2 20  1  0
  3  4  1  0
  4  5  1  0
  4 19  1  0
  5  6  1  0
  6  7  1  0
  7  8  1  0
  7 19  1  0
  8  9  2  0
  8 10  1  0
 10 11  2  0
 10 14  1  0
 11 12  1  0
 12 13  2  0
 12 18  1  0
 13 14  1  0
 13 15  1  0
 15 16  1  0
 16 17  1  0
 17 18  1  0
M  END
>  <cluster>  (125) 
cluster_4349

>  <glide_score>  (125) 
-6.85112670422984

>  <mmgbsa_dG>  (125) 
-42.5824039532745

$$$$
No_4679
     RDKit          3D

 22 24  0  0  1  0  0  0  0  0999 V2000
  -34.7220   76.0930  -43.2082 C   0  0  0  0  0  0  0  0  0  0  0  0
  -35.9755   76.8005  -43.3620 N   0  0  0  0  0  0  0  0  0  0  0  0
  -37.0817   76.2581  -42.5804 C   0  0  0  0  0  0  0  0  0  0  0  0
  -36.2292   77.5001  -44.5553 C   0  0  0  0  0  0  0  0  0  0  0  0
  -37.5222   77.7935  -44.9199 N   0  0  0  0  0  0  0  0  0  0  0  0
  -37.5413   78.3521  -46.1302 C   0  0  0  0  0  0  0  0  0  0  0  0
  -38.8324   78.6625  -46.8173 C   0  0  0  0  0  0  0  0  0  0  0  0
  -38.8453   79.0025  -48.0004 O   0  0  0  0  0  0  0  0  0  0  0  0
  -39.9283   78.6040  -46.0354 N   0  0  0  0  0  0  0  0  0  0  0  0
  -41.2785   78.8301  -46.4077 C   0  0  0  0  0  0  0  0  0  0  0  0
  -42.1812   79.2381  -45.4082 C   0  0  0  0  0  0  0  0  0  0  0  0
  -43.5379   79.4028  -45.7323 C   0  0  0  0  0  0  0  0  0  0  0  0
  -43.9418   79.1500  -47.0538 C   0  0  0  0  0  0  0  0  0  0  0  0
  -43.0934   78.7479  -48.0220 N   0  0  0  0  0  0  0  0  0  0  0  0
  -41.7902   78.6027  -47.7070 C   0  0  0  0  0  0  0  0  0  0  0  0
  -36.3064   78.5367  -46.5793 N   0  0  0  0  0  0  0  0  0  0  0  0
  -35.4626   78.0244  -45.5835 C   0  0  0  0  0  0  0  0  0  0  0  0
  -33.9690   78.0633  -45.7581 C   0  0  0  0  0  0  0  0  0  0  0  0
  -33.4643   77.1168  -46.8510 C   0  0  0  0  0  0  0  0  0  0  0  0
  -33.4593   77.9516  -48.1330 C   0  0  0  0  0  0  0  0  0  0  0  0
  -33.2243   79.4026  -47.6892 C   0  0  0  0  0  0  0  0  0  0  0  0
  -33.4347   79.4437  -46.1665 C   0  0  0  0  0  0  0  0  0  0  0  0
  1  2  1  0
  2  4  1  0
  2  3  1  0
  4 17  2  0
  4  5  1  0
  5  6  1  0
  6 16  2  0
  6  7  1  0
  7  8  2  0
  7  9  1  0
  9 10  1  0
 10 11  2  0
 10 15  1  0
 11 12  1  0
 12 13  2  0
 13 14  1  0
 14 15  2  0
 16 17  1  0
 17 18  1  0
 18 19  1  0
 18 22  1  0
 19 20  1  0
 20 21  1  0
 21 22  1  0
M  END
>  <cluster>  (126) 
cluster_15231

>  <glide_score>  (126) 
-6.62170377975195

>  <mmgbsa_dG>  (126) 
-42.4598302913437

$$$$
No_3315
     RDKit          3D

 27 29  0  0  1  0  0  0  0  0999 V2000
  -44.5801   79.4027  -46.8847 C   0  0  0  0  0  0  0  0  0  0  0  0
  -43.0901   79.1594  -46.8572 C   0  0  0  0  0  0  0  0  0  0  0  0
  -42.3995   79.2050  -45.6319 C   0  0  0  0  0  0  0  0  0  0  0  0
  -41.0109   79.0025  -45.6075 C   0  0  0  0  0  0  0  0  0  0  0  0
  -40.3112   78.6987  -46.7963 C   0  0  0  0  0  0  0  0  0  0  0  0
  -38.9315   78.3808  -46.8083 N   0  0  0  0  0  0  0  0  0  0  0  0
  -38.0020   78.8117  -45.9435 C   0  0  0  0  0  0  0  0  0  0  0  0
  -38.1384   79.7802  -45.1963 O   0  0  0  0  0  0  0  0  0  0  0  0
  -36.8799   78.0864  -46.0114 N   0  0  0  0  0  0  0  0  0  0  0  0
  -35.6789   78.3929  -45.2465 C   0  0  0  0  0  0  0  0  0  0  0  0
  -34.8659   77.1472  -44.8457 C   0  0  2  0  0  0  0  0  0  0  0  0
  -34.3296   76.4139  -46.0818 C   0  0  0  0  0  0  0  0  0  0  0  0
  -33.1344   76.6520  -46.6517 C   0  0  0  0  0  0  0  0  0  0  0  0
  -32.7455   75.8006  -47.7893 C   0  0  0  0  0  0  0  0  0  0  0  0
  -33.4844   74.8504  -48.2329 N   0  0  0  0  0  0  0  0  0  0  0  0
  -34.7285   74.5882  -47.6386 C   0  0  0  0  0  0  0  0  0  0  0  0
  -35.4632   73.6750  -48.0065 O   0  0  0  0  0  0  0  0  0  0  0  0
  -35.1219   75.3780  -46.6063 N   0  0  0  0  0  0  0  0  0  0  0  0
  -35.5967   76.2026  -43.9438 N   0  0  0  0  0  0  0  0  0  0  0  0
  -34.7714   75.1415  -43.3265 C   0  0  0  0  0  0  0  0  0  0  0  0
  -35.6799   74.4834  -42.2898 C   0  0  0  0  0  0  0  0  0  0  0  0
  -36.6964   75.5662  -41.9147 C   0  0  0  0  0  0  0  0  0  0  0  0
  -36.3849   76.7619  -42.8289 C   0  0  0  0  0  0  0  0  0  0  0  0
  -41.0070   78.6496  -48.0188 C   0  0  0  0  0  0  0  0  0  0  0  0
  -42.3934   78.9289  -48.0650 C   0  0  0  0  0  0  0  0  0  0  0  0
  -43.1215   79.0018  -49.2302 O   0  0  0  0  0  0  0  0  0  0  0  0
  -42.4191   79.0299  -50.4642 C   0  0  0  0  0  0  0  0  0  0  0  0
  1  2  1  0
  2  3  2  0
  2 25  1  0
  3  4  1  0
  4  5  2  0
  5  6  1  0
  5 24  1  0
  6  7  1  0
  7  8  2  0
  7  9  1  0
  9 10  1  0
 11 10  1  6
 11 19  1  0
 11 12  1  0
 12 18  1  0
 12 13  2  0
 13 14  1  0
 14 15  2  0
 15 16  1  0
 16 17  2  0
 16 18  1  0
 19 20  1  0
 19 23  1  0
 20 21  1  0
 21 22  1  0
 22 23  1  0
 24 25  2  0
 25 26  1  0
 26 27  1  0
M  CHG  1  19   1
M  END
>  <cluster>  (127) 
cluster_124663

>  <glide_score>  (127) 
-6.51595738547148

>  <mmgbsa_dG>  (127) 
-42.4218633989949

$$$$
No_3081
     RDKit          3D

 23 25  0  0  1  0  0  0  0  0999 V2000
  -36.9943   79.3744  -46.9961 O   0  0  0  0  0  0  0  0  0  0  0  0
  -37.4221   78.5262  -46.2161 C   0  0  0  0  0  0  0  0  0  0  0  0
  -36.7769   77.4023  -45.8809 N   0  0  0  0  0  0  0  0  0  0  0  0
  -35.4732   76.9612  -46.3607 C   0  0  0  0  0  0  0  0  0  0  0  0
  -34.4650   76.7799  -45.2087 C   0  0  0  0  0  0  0  0  0  0  0  0
  -35.0171   76.0588  -44.0019 C   0  0  0  0  0  0  0  0  0  0  0  0
  -35.9459   76.5848  -43.0667 C   0  0  0  0  0  0  0  0  0  0  0  0
  -36.3223   75.7484  -42.1312 N   0  0  0  0  0  0  0  0  0  0  0  0
  -35.5738   74.6322  -42.3883 N   0  0  0  0  0  0  0  0  0  0  0  0
  -35.5864   73.4766  -41.6689 C   0  0  0  0  0  0  0  0  0  0  0  0
  -34.7527   72.4636  -42.0767 C   0  0  0  0  0  0  0  0  0  0  0  0
  -33.9319   72.6844  -43.2076 C   0  0  0  0  0  0  0  0  0  0  0  0
  -33.9384   73.7943  -43.9391 N   0  0  0  0  0  0  0  0  0  0  0  0
  -34.7453   74.7941  -43.5270 C   0  0  0  0  0  0  0  0  0  0  0  0
  -38.6109   78.5978  -45.6069 N   0  0  0  0  0  0  0  0  0  0  0  0
  -39.7109   79.4964  -45.9007 C   0  0  0  0  0  0  0  0  0  0  0  0
  -40.4546   79.0026  -47.1516 C   0  0  0  0  0  0  0  0  0  0  0  0
  -39.9217   79.0796  -48.2578 O   0  0  0  0  0  0  0  0  0  0  0  0
  -41.7647   78.5506  -47.0181 N   0  0  0  0  0  0  0  0  0  0  0  0
  -42.7066   79.0628  -46.0338 C   0  0  0  0  0  0  0  0  0  0  0  0
  -43.7722   78.5573  -47.0127 C   0  0  0  0  0  0  0  0  0  0  0  0
  -44.7784   79.4024  -47.1950 F   0  0  0  0  0  0  0  0  0  0  0  0
  -42.7139   78.6410  -48.1148 C   0  0  0  0  0  0  0  0  0  0  0  0
  1  2  2  0
  2  3  1  0
  2 15  1  0
  3  4  1  0
  4  5  1  0
  5  6  1  0
  6  7  1  0
  6 14  2  0
  7  8  2  0
  8  9  1  0
  9 10  1  0
  9 14  1  0
 10 11  2  0
 11 12  1  0
 12 13  2  0
 13 14  1  0
 15 16  1  0
 16 17  1  0
 17 18  2  0
 17 19  1  0
 19 20  1  0
 19 23  1  0
 20 21  1  0
 21 22  1  0
 21 23  1  0
M  END
>  <cluster>  (128) 
cluster_61117

>  <glide_score>  (128) 
-6.72029840189989

>  <mmgbsa_dG>  (128) 
-42.4185421009097

$$$$
No_4525
     RDKit          3D

 23 25  0  0  1  0  0  0  0  0999 V2000
  -34.5324   73.0107  -41.6129 C   0  0  0  0  0  0  0  0  0  0  0  0
  -34.3216   72.9122  -43.1186 C   0  0  0  0  0  0  0  0  0  0  0  0
  -34.1320   71.8027  -43.6174 O   0  0  0  0  0  0  0  0  0  0  0  0
  -34.3240   74.0433  -43.8521 N   0  0  0  0  0  0  0  0  0  0  0  0
  -34.0871   74.0913  -45.2935 C   0  0  0  0  0  0  0  0  0  0  0  0
  -34.3210   75.5506  -45.7094 C   0  0  0  0  0  0  0  0  0  0  0  0
  -35.1222   76.1498  -44.6227 N   0  0  2  0  0  0  0  0  0  0  0  0
  -35.0301   77.6262  -44.4770 C   0  0  0  0  0  0  0  0  0  0  0  0
  -36.1363   78.4054  -45.2085 C   0  0  0  0  0  0  0  0  0  0  0  0
  -36.4041   79.5374  -44.8075 O   0  0  0  0  0  0  0  0  0  0  0  0
  -36.7338   77.8441  -46.2793 N   0  0  0  0  0  0  0  0  0  0  0  0
  -37.9997   78.1993  -46.8203 C   0  0  0  0  0  0  0  0  0  0  0  0
  -39.0068   78.6047  -46.0079 N   0  0  0  0  0  0  0  0  0  0  0  0
  -40.2240   78.7775  -46.5459 C   0  0  0  0  0  0  0  0  0  0  0  0
  -40.5123   78.6027  -47.8920 C   0  0  0  0  0  0  0  0  0  0  0  0
  -39.4893   78.2121  -48.7706 C   0  0  0  0  0  0  0  0  0  0  0  0
  -38.2042   77.9909  -48.2155 C   0  0  0  0  0  0  0  0  0  0  0  0
  -37.0772   77.5197  -49.1195 C   0  0  0  0  0  0  0  0  0  0  0  0
  -41.9809   78.7878  -48.1907 C   0  0  0  0  0  0  0  0  0  0  0  0
  -42.5488   79.0025  -46.7815 C   0  0  0  0  0  0  0  0  0  0  0  0
  -43.7509   79.0755  -46.5306 O   0  0  0  0  0  0  0  0  0  0  0  0
  -41.4449   79.0889  -45.7215 C   0  0  0  0  0  0  0  0  0  0  0  0
  -34.8006   75.3526  -43.4249 C   0  0  0  0  0  0  0  0  0  0  0  0
  1  2  1  0
  2  3  2  0
  2  4  1  0
  4  5  1  0
  4 23  1  0
  5  6  1  0
  6  7  1  0
  7  8  1  1
  7 23  1  0
  8  9  1  0
  9 10  2  0
  9 11  1  0
 11 12  1  0
 12 13  2  0
 12 17  1  0
 13 14  1  0
 14 15  2  0
 14 22  1  0
 15 16  1  0
 15 19  1  0
 16 17  2  0
 17 18  1  0
 19 20  1  0
 20 21  2  0
 20 22  1  0
M  CHG  1   7   1
M  END
>  <cluster>  (129) 
cluster_88941

>  <glide_score>  (129) 
-6.76652731796808

>  <mmgbsa_dG>  (129) 
-42.3840018005212

$$$$
No_2629
     RDKit          3D

 27 30  0  0  1  0  0  0  0  0999 V2000
  -37.0544   79.4029  -47.8512 O   0  0  0  0  0  0  0  0  0  0  0  0
  -36.8686   78.2299  -48.1760 C   0  0  0  0  0  0  0  0  0  0  0  0
  -35.6782   77.6354  -47.9988 N   0  0  0  0  0  0  0  0  0  0  0  0
  -34.4970   78.3058  -47.4678 C   0  0  0  0  0  0  0  0  0  0  0  0
  -34.5965   78.5063  -45.9430 C   0  0  0  0  0  0  0  0  0  0  0  0
  -33.5453   79.3456  -45.3601 N   0  0  0  0  0  0  0  0  0  0  0  0
  -33.6517   80.7623  -45.7190 C   0  0  0  0  0  0  0  0  0  0  0  0
  -34.8255   81.4831  -45.0212 C   0  0  0  0  0  0  0  0  0  0  0  0
  -34.7223   81.3235  -43.6078 O   0  0  0  0  0  0  0  0  0  0  0  0
  -34.6673   79.9559  -43.2083 C   0  0  0  0  0  0  0  0  0  0  0  0
  -33.5019   79.2431  -43.9046 C   0  0  0  0  0  0  0  0  0  0  0  0
  -37.8032   77.5043  -48.8435 N   0  0  0  0  0  0  0  0  0  0  0  0
  -38.8674   78.2038  -49.5864 C   0  0  0  0  0  0  0  0  0  0  0  0
  -40.1754   78.4344  -48.8335 C   0  0  0  0  0  0  0  0  0  0  0  0
  -41.3817   78.5246  -49.5599 C   0  0  0  0  0  0  0  0  0  0  0  0
  -42.5832   78.7441  -48.9924 N   0  0  0  0  0  0  0  0  0  0  0  0
  -42.6475   78.9227  -47.6577 C   0  0  0  0  0  0  0  0  0  0  0  0
  -43.8719   79.1962  -47.0268 C   0  0  0  0  0  0  0  0  0  0  0  0
  -43.9025   79.3969  -45.6370 C   0  0  0  0  0  0  0  0  0  0  0  0
  -42.8059   79.3090  -44.8620 N   0  0  0  0  0  0  0  0  0  0  0  0
  -41.6273   79.0400  -45.4546 C   0  0  0  0  0  0  0  0  0  0  0  0
  -41.4927   78.8484  -46.8418 C   0  0  0  0  0  0  0  0  0  0  0  0
  -40.2389   78.6028  -47.4327 C   0  0  0  0  0  0  0  0  0  0  0  0
  -37.9574   76.0336  -48.9689 C   0  0  0  0  0  0  0  0  0  0  0  0
  -36.9041   75.3298  -49.8409 C   0  0  0  0  0  0  0  0  0  0  0  0
  -36.9569   74.1652  -48.8388 C   0  0  0  0  0  0  0  0  0  0  0  0
  -37.5010   75.1485  -47.7940 C   0  0  0  0  0  0  0  0  0  0  0  0
  1  2  2  0
  2  3  1  0
  2 12  1  0
  3  4  1  0
  4  5  1  0
  5  6  1  0
  6  7  1  0
  6 11  1  0
  7  8  1  0
  8  9  1  0
  9 10  1  0
 10 11  1  0
 12 13  1  0
 12 24  1  0
 13 14  1  0
 14 15  2  0
 14 23  1  0
 15 16  1  0
 16 17  2  0
 17 18  1  0
 17 22  1  0
 18 19  2  0
 19 20  1  0
 20 21  2  0
 21 22  1  0
 22 23  2  0
 24 25  1  0
 24 27  1  0
 25 26  1  0
 26 27  1  0
M  END
>  <cluster>  (130) 
cluster_97597

>  <glide_score>  (130) 
-6.72581133066328

>  <mmgbsa_dG>  (130) 
-42.3635644361057

$$$$
No_3466
     RDKit          3D

 25 27  0  0  1  0  0  0  0  0999 V2000
  -33.3213   76.3261  -48.0076 C   0  0  0  0  0  0  0  0  0  0  0  0
  -33.8166   75.8286  -46.6391 C   0  0  1  0  0  0  0  0  0  0  0  0
  -35.0457   76.5751  -46.2237 N   0  0  1  0  0  0  0  0  0  0  0  0
  -36.2709   76.2515  -47.0309 C   0  0  0  0  0  0  0  0  0  0  0  0
  -36.8675   77.4607  -47.7950 C   0  0  0  0  0  0  0  0  0  0  0  0
  -37.6419   78.3489  -46.9020 N   0  0  0  0  0  0  0  0  0  0  0  0
  -36.9178   79.0105  -45.9846 C   0  0  0  0  0  0  0  0  0  0  0  0
  -36.0369   79.8195  -46.2749 O   0  0  0  0  0  0  0  0  0  0  0  0
  -36.9563   78.3768  -44.8079 N   0  0  0  0  0  0  0  0  0  0  0  0
  -35.7325   77.9397  -44.1528 C   0  0  0  0  0  0  0  0  0  0  0  0
  -35.2484   76.5909  -44.7352 C   0  0  0  0  0  0  0  0  0  0  0  0
  -39.0106   78.6030  -47.1325 C   0  0  0  0  0  0  0  0  0  0  0  0
  -39.7620   78.8958  -46.1097 N   0  0  0  0  0  0  0  0  0  0  0  0
  -41.1443   79.0025  -46.3178 C   0  0  0  0  0  0  0  0  0  0  0  0
  -41.9863   79.2907  -45.2277 C   0  0  0  0  0  0  0  0  0  0  0  0
  -43.3846   79.2922  -45.3904 C   0  0  0  0  0  0  0  0  0  0  0  0
  -43.9449   79.0270  -46.6531 C   0  0  0  0  0  0  0  0  0  0  0  0
  -45.2887   79.0023  -46.8042 F   0  0  0  0  0  0  0  0  0  0  0  0
  -43.1092   78.7848  -47.7580 C   0  0  0  0  0  0  0  0  0  0  0  0
  -41.7092   78.7687  -47.5953 C   0  0  0  0  0  0  0  0  0  0  0  0
  -40.7904   78.5084  -48.7594 C   0  0  0  0  0  0  0  0  0  0  0  0
  -41.2693   78.2985  -49.8726 O   0  0  0  0  0  0  0  0  0  0  0  0
  -39.4659   78.5218  -48.4413 N   0  0  0  0  0  0  0  0  0  0  0  0
  -33.9581   74.2821  -46.6221 C   0  0  0  0  0  0  0  0  0  0  0  0
  -34.3221   73.7668  -45.3566 O   0  0  0  0  0  0  0  0  0  0  0  0
  2  1  1  6
  2  3  1  0
  2 24  1  0
  3  4  1  6
  3 11  1  0
  4  5  1  0
  5  6  1  0
  6  7  1  0
  6 12  1  0
  7  8  2  0
  7  9  1  0
  9 10  1  0
 10 11  1  0
 12 13  2  0
 12 23  1  0
 13 14  1  0
 14 20  2  0
 14 15  1  0
 15 16  2  0
 16 17  1  0
 17 19  2  0
 17 18  1  0
 19 20  1  0
 20 21  1  0
 21 22  2  0
 21 23  1  0
 24 25  1  0
M  CHG  2   3   1  23  -1
M  END
>  <cluster>  (131) 
cluster_124814

>  <glide_score>  (131) 
-6.68370489613717

>  <mmgbsa_dG>  (131) 
-42.3329866484855

$$$$
No_1377
     RDKit          3D

 22 24  0  0  1  0  0  0  0  0999 V2000
  -42.7214   79.0882  -49.8316 C   0  0  0  0  0  0  0  0  0  0  0  0
  -42.3862   78.9965  -48.3783 C   0  0  0  0  0  0  0  0  0  0  0  0
  -43.2444   79.1373  -47.3152 C   0  0  0  0  0  0  0  0  0  0  0  0
  -42.4194   79.0028  -45.7863 S   0  0  0  0  0  0  0  0  0  0  0  0
  -40.9193   78.7526  -46.6679 C   0  0  0  0  0  0  0  0  0  0  0  0
  -39.6884   78.5324  -46.0076 N   0  0  0  0  0  0  0  0  0  0  0  0
  -38.4461   78.6097  -46.5070 C   0  0  0  0  0  0  0  0  0  0  0  0
  -38.1704   79.0011  -47.6396 O   0  0  0  0  0  0  0  0  0  0  0  0
  -37.5219   78.2627  -45.5976 N   0  0  0  0  0  0  0  0  0  0  0  0
  -36.0728   78.4755  -45.7115 C   0  0  2  0  0  0  0  0  0  0  0  0
  -35.4371   77.6577  -46.8573 C   0  0  0  0  0  0  0  0  0  0  0  0
  -35.4185   76.1638  -46.5146 C   0  0  0  0  0  0  0  0  0  0  0  0
  -34.7220   75.9555  -45.2910 O   0  0  0  0  0  0  0  0  0  0  0  0
  -35.3611   76.5833  -44.1858 C   0  0  0  0  0  0  0  0  0  0  0  0
  -35.3721   78.1151  -44.3732 C   0  0  1  0  0  0  0  0  0  0  0  0
  -33.9431   78.6770  -44.2194 C   0  0  0  0  0  0  0  0  0  0  0  0
  -33.9003   80.1245  -44.1308 N   0  0  0  0  0  0  0  0  0  0  0  0
  -33.8950   81.0427  -45.1732 C   0  0  0  0  0  0  0  0  0  0  0  0
  -33.8852   82.2934  -44.5964 C   0  0  0  0  0  0  0  0  0  0  0  0
  -33.8586   82.1674  -43.2078 N   0  0  0  0  0  0  0  0  0  0  0  0
  -33.8383   80.8550  -43.0080 C   0  0  0  0  0  0  0  0  0  0  0  0
  -41.0648   78.7512  -47.9966 N   0  0  0  0  0  0  0  0  0  0  0  0
  1  2  1  0
  2  3  2  0
  2 22  1  0
  3  4  1  0
  4  5  1  0
  5  6  1  0
  5 22  2  0
  6  7  1  0
  7  8  2  0
  7  9  1  0
 10  9  1  1
 10 11  1  0
 10 15  1  0
 11 12  1  0
 12 13  1  0
 13 14  1  0
 14 15  1  0
 15 16  1  6
 16 17  1  0
 17 18  1  0
 17 21  1  0
 18 19  2  0
 19 20  1  0
 20 21  2  0
M  END
>  <cluster>  (132) 
cluster_112173

>  <glide_score>  (132) 
-6.7101582675386

>  <mmgbsa_dG>  (132) 
-42.2801977413037

$$$$
No_3575
     RDKit          3D

 19 21  0  0  1  0  0  0  0  0999 V2000
  -44.1006   79.2066  -46.6357 C   0  0  0  0  0  0  0  0  0  0  0  0
  -42.6302   79.0024  -46.8012 C   0  0  0  0  0  0  0  0  0  0  0  0
  -41.6291   79.0025  -45.8714 C   0  0  0  0  0  0  0  0  0  0  0  0
  -40.4582   78.7523  -46.6369 C   0  0  0  0  0  0  0  0  0  0  0  0
  -39.2029   78.6025  -46.0077 N   0  0  0  0  0  0  0  0  0  0  0  0
  -37.9812   78.6032  -46.5723 C   0  0  0  0  0  0  0  0  0  0  0  0
  -37.7432   78.9910  -47.7157 O   0  0  0  0  0  0  0  0  0  0  0  0
  -36.8719   78.1846  -45.6567 C   0  0  0  0  0  0  0  0  0  0  0  0
  -37.1222   77.4024  -44.5963 N   0  0  0  0  0  0  0  0  0  0  0  0
  -35.9263   77.1954  -44.0507 C   0  0  0  0  0  0  0  0  0  0  0  0
  -35.7724   76.3782  -42.8111 C   0  0  0  0  0  0  0  0  0  0  0  0
  -36.8899   75.4532  -42.2973 C   0  0  0  0  0  0  0  0  0  0  0  0
  -35.8548   74.3705  -41.9998 C   0  0  0  0  0  0  0  0  0  0  0  0
  -34.8668   75.1391  -42.8719 C   0  0  0  0  0  0  0  0  0  0  0  0
  -34.9510   77.8484  -44.6875 N   0  0  0  0  0  0  0  0  0  0  0  0
  -35.5705   78.4824  -45.7581 N   0  0  0  0  0  0  0  0  0  0  0  0
  -40.6979   78.6047  -47.9285 N   0  0  0  0  0  0  0  0  0  0  0  0
  -42.0360   78.7591  -48.0279 N   0  0  0  0  0  0  0  0  0  0  0  0
  -42.6596   78.6350  -49.3276 C   0  0  0  0  0  0  0  0  0  0  0  0
  1  2  1  0
  2  3  2  0
  2 18  1  0
  3  4  1  0
  4  5  1  0
  4 17  2  0
  5  6  1  0
  6  7  2  0
  6  8  1  0
  8  9  1  0
  8 16  2  0
  9 10  1  0
 10 15  2  0
 10 11  1  0
 11 12  1  0
 11 14  1  0
 12 13  1  0
 13 14  1  0
 15 16  1  0
 17 18  1  0
 18 19  1  0
M  END
>  <cluster>  (133) 
cluster_82715

>  <glide_score>  (133) 
-6.67033935496854

>  <mmgbsa_dG>  (133) 
-42.1947339504623

$$$$
No_2511
     RDKit          3D

 21 23  0  0  1  0  0  0  0  0999 V2000
  -42.3216   79.4028  -50.5273 C   0  0  0  0  0  0  0  0  0  0  0  0
  -41.6760   78.1564  -49.9127 C   0  0  0  0  0  0  0  0  0  0  0  0
  -41.0502   78.4494  -48.6389 N   0  0  0  0  0  0  0  0  0  0  0  0
  -39.6959   78.6019  -48.3866 C   0  0  0  0  0  0  0  0  0  0  0  0
  -39.4821   78.8677  -47.0510 C   0  0  0  0  0  0  0  0  0  0  0  0
  -38.1507   79.1023  -46.3773 C   0  0  0  0  0  0  0  0  0  0  0  0
  -37.9220   78.2045  -45.2542 N   0  0  0  0  0  0  0  0  0  0  0  0
  -36.7201   77.8159  -44.8091 C   0  0  0  0  0  0  0  0  0  0  0  0
  -35.6619   78.2059  -45.2993 O   0  0  0  0  0  0  0  0  0  0  0  0
  -36.7408   76.8665  -43.6060 C   0  0  0  0  0  0  0  0  0  0  0  0
  -35.3779   76.2613  -43.2184 C   0  0  0  0  0  0  0  0  0  0  0  0
  -35.4652   74.8245  -42.8587 N   0  0  0  0  0  0  0  0  0  0  0  0
  -36.1831   74.4872  -41.6169 C   0  0  0  0  0  0  0  0  0  0  0  0
  -35.6752   73.0891  -41.2203 C   0  0  0  0  0  0  0  0  0  0  0  0
  -34.3823   72.8616  -42.0056 C   0  0  0  0  0  0  0  0  0  0  0  0
  -34.1520   74.1693  -42.7498 C   0  0  0  0  0  0  0  0  0  0  0  0
  -40.7923   78.9034  -46.4515 C   0  0  0  0  0  0  0  0  0  0  0  0
  -41.4454   79.1306  -45.2078 C   0  0  0  0  0  0  0  0  0  0  0  0
  -42.8148   79.0033  -45.3030 C   0  0  0  0  0  0  0  0  0  0  0  0
  -43.3388   78.6091  -46.9305 S   0  0  0  0  0  0  0  0  0  0  0  0
  -41.6801   78.6292  -47.4352 C   0  0  0  0  0  0  0  0  0  0  0  0
  1  2  1  0
  2  3  1  0
  3  4  1  0
  3 21  1  0
  4  5  2  0
  5  6  1  0
  5 17  1  0
  6  7  1  0
  7  8  1  0
  8  9  2  0
  8 10  1  0
 10 11  1  0
 11 12  1  0
 12 13  1  0
 12 16  1  0
 13 14  1  0
 14 15  1  0
 15 16  1  0
 17 18  1  0
 17 21  2  0
 18 19  2  0
 19 20  1  0
 20 21  1  0
M  CHG  1  12   1
M  END
>  <cluster>  (134) 
cluster_49995

>  <glide_score>  (134) 
-6.58139139906757

>  <mmgbsa_dG>  (134) 
-42.0128857794043

$$$$
No_3858
     RDKit          3D

 24 26  0  0  1  0  0  0  0  0999 V2000
  -33.1666   69.8143  -53.0637 C   0  0  0  0  0  0  0  0  0  0  0  0
  -33.0347   70.4255  -51.7120 C   0  0  0  0  0  0  0  0  0  0  0  0
  -32.7512   69.8061  -50.5632 N   0  0  0  0  0  0  0  0  0  0  0  0
  -32.7228   70.7928  -49.6073 N   0  0  0  0  0  0  0  0  0  0  0  0
  -32.9951   71.9343  -50.2436 C   0  0  0  0  0  0  0  0  0  0  0  0
  -33.0739   73.3084  -49.6484 C   0  0  0  0  0  0  0  0  0  0  0  0
  -34.2503   73.5287  -48.8043 N   0  0  0  0  0  0  0  0  0  0  0  0
  -35.4770   73.5704  -49.5904 C   0  0  0  0  0  0  0  0  0  0  0  0
  -36.4601   74.2754  -48.6575 C   0  0  0  0  0  0  0  0  0  0  0  0
  -35.6202   75.1277  -47.7880 N   0  0  2  0  0  0  0  0  0  0  0  0
  -35.9700   76.5742  -47.7612 C   0  0  0  0  0  0  0  0  0  0  0  0
  -37.3853   76.8230  -47.2139 C   0  0  0  0  0  0  0  0  0  0  0  0
  -37.6965   78.6025  -46.8497 S   0  0  0  0  0  0  0  0  0  0  0  0
  -37.2021   79.4024  -47.9819 O   0  0  0  0  0  0  0  0  0  0  0  0
  -37.1784   78.8758  -45.4994 O   0  0  0  0  0  0  0  0  0  0  0  0
  -39.4906   78.7402  -46.8132 C   0  0  0  0  0  0  0  0  0  0  0  0
  -40.1710   79.0050  -45.6117 C   0  0  0  0  0  0  0  0  0  0  0  0
  -41.5761   79.0767  -45.6381 C   0  0  0  0  0  0  0  0  0  0  0  0
  -42.2364   78.8950  -46.8689 C   0  0  0  0  0  0  0  0  0  0  0  0
  -43.7460   79.0137  -46.9627 C   0  0  0  0  0  0  0  0  0  0  0  0
  -41.4609   78.6246  -48.0158 C   0  0  0  0  0  0  0  0  0  0  0  0
  -40.1128   78.5552  -47.9975 N   0  0  0  0  0  0  0  0  0  0  0  0
  -34.2221   74.8517  -48.1853 C   0  0  0  0  0  0  0  0  0  0  0  0
  -33.2078   71.7677  -51.5747 O   0  0  0  0  0  0  0  0  0  0  0  0
  1  2  1  0
  2  3  2  0
  2 24  1  0
  3  4  1  0
  4  5  2  0
  5  6  1  0
  5 24  1  0
  6  7  1  0
  7  8  1  0
  7 23  1  0
  8  9  1  0
  9 10  1  0
 10 11  1  6
 10 23  1  0
 11 12  1  0
 12 13  1  0
 13 14  2  0
 13 15  2  0
 13 16  1  0
 16 17  2  0
 16 22  1  0
 17 18  1  0
 18 19  2  0
 19 20  1  0
 19 21  1  0
 21 22  2  0
M  CHG  1  10   1
M  END
>  <cluster>  (135) 
cluster_88274

>  <glide_score>  (135) 
-6.66482389097272

>  <mmgbsa_dG>  (135) 
-42.0080670092939

$$$$
No_1478
     RDKit          3D

 23 25  0  0  1  0  0  0  0  0999 V2000
  -43.1220   75.3970  -52.0316 O   0  0  0  0  0  0  0  0  0  0  0  0
  -43.0893   76.4795  -52.6161 C   0  0  0  0  0  0  0  0  0  0  0  0
  -42.7223   77.5914  -51.9558 N   0  0  0  0  0  0  0  0  0  0  0  0
  -42.4046   77.6120  -50.5333 C   0  0  0  0  0  0  0  0  0  0  0  0
  -42.5312   79.0191  -49.9411 C   0  0  0  0  0  0  0  0  0  0  0  0
  -42.2872   79.0027  -48.4478 C   0  0  0  0  0  0  0  0  0  0  0  0
  -43.3280   79.2624  -47.5354 C   0  0  0  0  0  0  0  0  0  0  0  0
  -43.0273   79.2486  -46.1639 C   0  0  0  0  0  0  0  0  0  0  0  0
  -41.7904   79.0026  -45.6865 N   0  0  0  0  0  0  0  0  0  0  0  0
  -40.7772   78.7718  -46.5513 C   0  0  0  0  0  0  0  0  0  0  0  0
  -39.5038   78.4933  -46.0078 N   0  0  0  0  0  0  0  0  0  0  0  0
  -38.2809   78.5550  -46.5595 C   0  0  0  0  0  0  0  0  0  0  0  0
  -38.0465   79.0025  -47.6827 O   0  0  0  0  0  0  0  0  0  0  0  0
  -37.2071   78.0486  -45.6493 C   0  0  0  0  0  0  0  0  0  0  0  0
  -36.0854   77.2401  -46.2705 C   0  0  0  0  0  0  0  0  0  0  0  0
  -35.8190   78.6431  -45.7836 C   0  0  0  0  0  0  0  0  0  0  0  0
  -40.9985   78.7422  -47.9479 C   0  0  0  0  0  0  0  0  0  0  0  0
  -43.4130   76.6047  -53.9330 N   0  0  0  0  0  0  0  0  0  0  0  0
  -43.8126   75.4318  -54.7134 C   0  0  0  0  0  0  0  0  0  0  0  0
  -43.8423   75.8729  -56.1795 C   0  0  0  0  0  0  0  0  0  0  0  0
  -43.7994   77.3996  -56.1414 C   0  0  0  0  0  0  0  0  0  0  0  0
  -43.4361   77.7181  -54.7004 C   0  0  0  0  0  0  0  0  0  0  0  0
  -43.2113   78.8759  -54.3458 O   0  0  0  0  0  0  0  0  0  0  0  0
  1  2  2  0
  2  3  1  0
  2 18  1  0
  3  4  1  0
  4  5  1  0
  5  6  1  0
  6  7  2  0
  6 17  1  0
  7  8  1  0
  8  9  2  0
  9 10  1  0
 10 11  1  0
 10 17  2  0
 11 12  1  0
 12 13  2  0
 12 14  1  0
 14 15  1  0
 14 16  1  0
 15 16  1  0
 18 19  1  0
 18 22  1  0
 19 20  1  0
 20 21  1  0
 21 22  1  0
 22 23  2  0
M  END
>  <cluster>  (136) 
cluster_6754

>  <glide_score>  (136) 
-6.51478411731142

>  <mmgbsa_dG>  (136) 
-42.0046897410648

$$$$
No_2077
     RDKit          3D

 23 26  0  0  1  0  0  0  0  0999 V2000
  -34.8228   74.3506  -47.2621 C   0  0  0  0  0  0  0  0  0  0  0  0
  -35.9406   74.1980  -48.3179 C   0  0  1  0  0  0  0  0  0  0  0  0
  -35.9881   75.3464  -49.2529 N   0  0  0  0  0  0  0  0  0  0  0  0
  -37.2022   75.3371  -50.0712 C   0  0  0  0  0  0  0  0  0  0  0  0
  -38.2708   76.0623  -49.2504 C   0  0  0  0  0  0  0  0  0  0  0  0
  -37.5253   77.0725  -48.5220 N   0  0  0  0  0  0  0  0  0  0  0  0
  -37.9615   78.1581  -47.8394 C   0  0  0  0  0  0  0  0  0  0  0  0
  -37.1923   78.9063  -47.2339 O   0  0  0  0  0  0  0  0  0  0  0  0
  -39.4405   78.4350  -47.7695 C   0  0  0  0  0  0  0  0  0  0  0  0
  -40.2221   78.5908  -48.9683 C   0  0  0  0  0  0  0  0  0  0  0  0
  -41.6256   78.8322  -48.9552 C   0  0  0  0  0  0  0  0  0  0  0  0
  -42.1719   78.9514  -47.6779 C   0  0  0  0  0  0  0  0  0  0  0  0
  -41.3992   78.8557  -46.4861 C   0  0  0  0  0  0  0  0  0  0  0  0
  -40.0277   78.6028  -46.4797 C   0  0  0  0  0  0  0  0  0  0  0  0
  -42.5822   79.1017  -45.5881 C   0  0  0  0  0  0  0  0  0  0  0  0
  -43.4557   79.2113  -46.9328 C   0  0  0  0  0  0  0  0  0  0  0  0
  -36.1308   76.6721  -48.6390 C   0  0  0  0  0  0  0  0  0  0  0  0
  -35.7429   72.8571  -49.0890 C   0  0  0  0  0  0  0  0  0  0  0  0
  -34.4292   72.7049  -49.6999 N   0  0  0  0  0  0  0  0  0  0  0  0
  -33.9262   73.3550  -50.8087 C   0  0  0  0  0  0  0  0  0  0  0  0
  -32.6775   72.8592  -51.0395 C   0  0  0  0  0  0  0  0  0  0  0  0
  -32.4984   71.8946  -50.0093 C   0  0  0  0  0  0  0  0  0  0  0  0
  -33.5480   71.8017  -49.2081 N   0  0  0  0  0  0  0  0  0  0  0  0
  2  1  1  1
  2  3  1  0
  2 18  1  0
  3  4  1  0
  3 17  1  0
  4  5  1  0
  5  6  1  0
  6  7  1  0
  6 17  1  0
  7  8  2  0
  7  9  1  0
  9 10  2  0
  9 14  1  0
 10 11  1  0
 11 12  2  0
 12 13  1  0
 12 16  1  0
 13 14  2  0
 13 15  1  0
 15 16  1  0
 18 19  1  0
 19 20  1  0
 19 23  1  0
 20 21  2  0
 21 22  1  0
 22 23  2  0
M  END
>  <cluster>  (137) 
cluster_102321

>  <glide_score>  (137) 
-6.54507030950234

>  <mmgbsa_dG>  (137) 
-41.9967565866173

$$$$
No_3632
     RDKit          3D

 21 23  0  0  1  0  0  0  0  0999 V2000
  -34.4304   78.5246  -45.1516 C   0  0  0  0  0  0  0  0  0  0  0  0
  -35.3276   77.3621  -45.6377 C   0  0  1  0  0  0  0  0  0  0  0  0
  -35.4320   76.2028  -44.6973 N   0  0  2  0  0  0  0  0  0  0  0  0
  -35.5354   76.5337  -43.2556 C   0  0  0  0  0  0  0  0  0  0  0  0
  -35.8821   75.2661  -42.4594 C   0  0  0  0  0  0  0  0  0  0  0  0
  -34.9640   74.1536  -42.7438 N   0  0  0  0  0  0  0  0  0  0  0  0
  -34.8605   73.1319  -41.6997 C   0  0  0  0  0  0  0  0  0  0  0  0
  -34.3222   74.0057  -43.9281 C   0  0  0  0  0  0  0  0  0  0  0  0
  -33.6637   73.0033  -44.2094 O   0  0  0  0  0  0  0  0  0  0  0  0
  -34.4573   75.1146  -44.9973 C   0  0  0  0  0  0  0  0  0  0  0  0
  -36.7069   77.8391  -46.0813 C   0  0  0  0  0  0  0  0  0  0  0  0
  -37.3948   78.6030  -45.2318 N   0  0  0  0  0  0  0  0  0  0  0  0
  -38.6514   78.9455  -45.5904 C   0  0  0  0  0  0  0  0  0  0  0  0
  -39.2374   78.4777  -46.7819 C   0  0  0  0  0  0  0  0  0  0  0  0
  -40.6482   78.6879  -47.0881 C   0  0  0  0  0  0  0  0  0  0  0  0
  -41.1991   78.6025  -48.3019 N   0  0  0  0  0  0  0  0  0  0  0  0
  -42.5795   78.8244  -48.2812 C   0  0  0  0  0  0  0  0  0  0  0  0
  -43.0823   79.0425  -47.0239 C   0  0  0  0  0  0  0  0  0  0  0  0
  -41.8310   79.0027  -45.8136 S   0  0  0  0  0  0  0  0  0  0  0  0
  -38.3960   77.7228  -47.6227 C   0  0  0  0  0  0  0  0  0  0  0  0
  -37.1385   77.3924  -47.2602 N   0  0  0  0  0  0  0  0  0  0  0  0
  2  1  1  1
  2  3  1  0
  2 11  1  0
  3  4  1  1
  3 10  1  0
  4  5  1  0
  5  6  1  0
  6  7  1  0
  6  8  1  0
  8  9  2  0
  8 10  1  0
 11 12  2  0
 11 21  1  0
 12 13  1  0
 13 14  2  0
 14 15  1  0
 14 20  1  0
 15 16  2  0
 15 19  1  0
 16 17  1  0
 17 18  2  0
 18 19  1  0
 20 21  2  0
M  CHG  1   3   1
M  END
>  <cluster>  (138) 
cluster_66944

>  <glide_score>  (138) 
-6.58834653547382

>  <mmgbsa_dG>  (138) 
-41.9731410708773

$$$$
No_663
     RDKit          3D

 23 25  0  0  1  0  0  0  0  0999 V2000
  -35.4545   71.4346  -52.2255 C   0  0  0  0  0  0  0  0  0  0  0  0
  -36.6294   71.0842  -51.2963 C   0  0  0  0  0  0  0  0  0  0  0  0
  -37.0425   72.1836  -50.2851 C   0  0  2  0  0  0  0  0  0  0  0  0
  -37.4801   73.5064  -50.9478 C   0  0  0  0  0  0  0  0  0  0  0  0
  -37.8765   74.5791  -49.9144 C   0  0  0  0  0  0  0  0  0  0  0  0
  -36.7376   74.8831  -49.0417 N   0  0  0  0  0  0  0  0  0  0  0  0
  -37.0346   75.9583  -48.0950 C   0  0  0  0  0  0  0  0  0  0  0  0
  -36.9208   77.3429  -48.7665 C   0  0  0  0  0  0  0  0  0  0  0  0
  -37.0362   78.3650  -47.7841 O   0  0  0  0  0  0  0  0  0  0  0  0
  -38.2707   78.6021  -47.2239 C   0  0  0  0  0  0  0  0  0  0  0  0
  -38.2799   79.1119  -45.9003 C   0  0  0  0  0  0  0  0  0  0  0  0
  -39.4898   79.4027  -45.2322 C   0  0  0  0  0  0  0  0  0  0  0  0
  -40.6869   79.1684  -45.9236 C   0  0  0  0  0  0  0  0  0  0  0  0
  -40.6904   78.6972  -47.2193 C   0  0  0  0  0  0  0  0  0  0  0  0
  -39.5015   78.4013  -47.9089 C   0  0  0  0  0  0  0  0  0  0  0  0
  -42.0885   78.5972  -47.7023 C   0  0  0  0  0  0  0  0  0  0  0  0
  -42.4268   78.2090  -48.8199 O   0  0  0  0  0  0  0  0  0  0  0  0
  -42.8704   79.0025  -46.6808 N   0  0  0  0  0  0  0  0  0  0  0  0
  -44.3167   79.1443  -46.6946 C   0  0  0  0  0  0  0  0  0  0  0  0
  -42.1116   79.3768  -45.4799 C   0  0  0  0  0  0  0  0  0  0  0  0
  -36.3005   73.6911  -48.3113 C   0  0  0  0  0  0  0  0  0  0  0  0
  -35.9933   72.4892  -49.2069 C   0  0  0  0  0  0  0  0  0  0  0  0
  -34.9916   71.7965  -49.0255 O   0  0  0  0  0  0  0  0  0  0  0  0
  1  2  1  0
  3  2  1  6
  3  4  1  0
  3 22  1  0
  4  5  1  0
  5  6  1  0
  6  7  1  0
  6 21  1  0
  7  8  1  0
  8  9  1  0
  9 10  1  0
 10 11  2  0
 10 15  1  0
 11 12  1  0
 12 13  2  0
 13 14  1  0
 13 20  1  0
 14 15  2  0
 14 16  1  0
 16 17  2  0
 16 18  1  0
 18 19  1  0
 18 20  1  0
 21 22  1  0
 22 23  2  0
M  END
>  <cluster>  (139) 
cluster_58699

>  <glide_score>  (139) 
-7.03986403926961

>  <mmgbsa_dG>  (139) 
-41.690733236821

$$$$
No_5086
     RDKit          3D

 22 25  0  0  1  0  0  0  0  0999 V2000
  -32.3746   81.4158  -42.2695 C   0  0  0  0  0  0  0  0  0  0  0  0
  -33.6249   81.0017  -43.0343 C   0  0  0  0  0  0  0  0  0  0  0  0
  -34.3222   81.8584  -43.5808 O   0  0  0  0  0  0  0  0  0  0  0  0
  -33.9221   79.6949  -42.9886 N   0  0  0  0  0  0  0  0  0  0  0  0
  -34.9314   78.9954  -43.6830 C   0  0  0  0  0  0  0  0  0  0  0  0
  -35.5883   79.4663  -44.7515 N   0  0  0  0  0  0  0  0  0  0  0  0
  -36.4873   78.5221  -45.2639 C   0  0  0  0  0  0  0  0  0  0  0  0
  -37.2696   78.7767  -46.5249 C   0  0  0  0  0  0  0  0  0  0  0  0
  -38.7153   78.4894  -46.5737 N   0  0  0  0  0  0  0  0  0  0  0  0
  -39.3842   79.4041  -45.6553 C   0  0  0  0  0  0  0  0  0  0  0  0
  -40.8783   79.1179  -45.5626 C   0  0  0  0  0  0  0  0  0  0  0  0
  -41.5264   78.9955  -46.8599 N   0  0  0  0  0  0  0  0  0  0  0  0
  -42.9307   79.3116  -46.8880 C   0  0  0  0  0  0  0  0  0  0  0  0
  -43.9221   78.2029  -46.6534 C   0  0  0  0  0  0  0  0  0  0  0  0
  -43.7805   79.2905  -45.6257 C   0  0  0  0  0  0  0  0  0  0  0  0
  -40.8637   78.6029  -47.9726 C   0  0  0  0  0  0  0  0  0  0  0  0
  -41.4759   78.3924  -49.0219 O   0  0  0  0  0  0  0  0  0  0  0  0
  -39.3411   78.4725  -47.9283 C   0  0  0  0  0  0  0  0  0  0  0  0
  -38.7487   77.5153  -48.9588 C   0  0  0  0  0  0  0  0  0  0  0  0
  -38.6057   79.0023  -49.1588 C   0  0  0  0  0  0  0  0  0  0  0  0
  -36.5213   77.3705  -44.5266 C   0  0  0  0  0  0  0  0  0  0  0  0
  -35.3956   77.3745  -43.2082 S   0  0  0  0  0  0  0  0  0  0  0  0
  1  2  1  0
  2  3  2  0
  2  4  1  0
  4  5  1  0
  5  6  2  0
  5 22  1  0
  6  7  1  0
  7  8  1  0
  7 21  2  0
  8  9  1  0
  9 10  1  0
  9 18  1  0
 10 11  1  0
 11 12  1  0
 12 13  1  0
 12 16  1  0
 13 14  1  0
 13 15  1  0
 14 15  1  0
 16 17  2  0
 16 18  1  0
 18 19  1  0
 18 20  1  0
 19 20  1  0
 21 22  1  0
M  END
>  <cluster>  (140) 
cluster_100054

>  <glide_score>  (140) 
-6.68815806665678

>  <mmgbsa_dG>  (140) 
-41.6573984092247

$$$$
No_3387
     RDKit          3D

 20 22  0  0  1  0  0  0  0  0999 V2000
  -43.8309   79.2383  -44.5183 C   0  0  0  0  0  0  0  0  0  0  0  0
  -42.9576   79.3430  -45.6797 N   0  0  0  0  0  0  0  0  0  0  0  0
  -43.4437   78.4492  -46.7261 C   0  0  0  0  0  0  0  0  0  0  0  0
  -42.6248   78.6796  -48.0099 C   0  0  0  0  0  0  0  0  0  0  0  0
  -41.1269   78.6130  -47.7590 C   0  0  0  0  0  0  0  0  0  0  0  0
  -40.2305   78.4194  -48.8291 C   0  0  0  0  0  0  0  0  0  0  0  0
  -38.8429   78.4087  -48.5890 C   0  0  0  0  0  0  0  0  0  0  0  0
  -38.3372   78.6054  -47.2843 C   0  0  0  0  0  0  0  0  0  0  0  0
  -36.8252   78.6312  -47.0677 C   0  0  2  0  0  0  0  0  0  0  0  0
  -36.3000   77.3288  -46.4743 C   0  0  0  0  0  0  0  0  0  0  0  0
  -36.2958   77.5787  -44.9688 C   0  0  0  0  0  0  0  0  0  0  0  0
  -36.0341   79.0177  -44.8029 N   0  0  0  0  0  0  0  0  0  0  0  0
  -34.5808   79.5119  -43.9878 S   0  0  0  0  0  0  0  0  0  0  0  0
  -33.4281   79.0094  -44.7482 O   0  0  0  0  0  0  0  0  0  0  0  0
  -34.7210   80.9329  -43.6281 O   0  0  0  0  0  0  0  0  0  0  0  0
  -34.7222   78.5985  -42.5467 N   0  0  0  0  0  0  0  0  0  0  0  0
  -36.3455   79.7015  -46.0718 C   0  0  0  0  0  0  0  0  0  0  0  0
  -39.2433   78.7868  -46.2163 C   0  0  0  0  0  0  0  0  0  0  0  0
  -40.6326   78.8036  -46.4501 C   0  0  0  0  0  0  0  0  0  0  0  0
  -41.5987   78.9664  -45.2858 C   0  0  0  0  0  0  0  0  0  0  0  0
  1  2  1  0
  2  3  1  0
  2 20  1  0
  3  4  1  0
  4  5  1  0
  5  6  1  0
  5 19  2  0
  6  7  2  0
  7  8  1  0
  9  8  1  1
  8 18  2  0
  9 10  1  0
  9 17  1  0
 10 11  1  0
 11 12  1  0
 12 13  1  0
 12 17  1  0
 13 14  2  0
 13 15  2  0
 13 16  1  0
 18 19  1  0
 19 20  1  0
M  END
>  <cluster>  (141) 
cluster_13939

>  <glide_score>  (141) 
-6.52532648823547

>  <mmgbsa_dG>  (141) 
-41.6103329480684

$$$$
No_208
     RDKit          3D

 24 26  0  0  1  0  0  0  0  0999 V2000
  -34.7924   72.7268  -42.4291 C   0  0  0  0  0  0  0  0  0  0  0  0
  -35.6545   73.9709  -42.2104 C   0  0  0  0  0  0  0  0  0  0  0  0
  -35.2002   75.0016  -43.0703 O   0  0  0  0  0  0  0  0  0  0  0  0
  -35.9701   76.1839  -42.9235 C   0  0  0  0  0  0  0  0  0  0  0  0
  -35.4514   77.2502  -43.8873 C   0  0  0  0  0  0  0  0  0  0  0  0
  -35.5220   78.4459  -43.6101 O   0  0  0  0  0  0  0  0  0  0  0  0
  -34.8213   76.7991  -45.2083 C   0  0  0  0  0  0  0  0  0  0  0  0
  -35.8599   76.2031  -46.0827 N   0  0  2  0  0  0  0  0  0  0  0  0
  -35.3118   75.4661  -47.2322 C   0  0  0  0  0  0  0  0  0  0  0  0
  -35.8260   76.2219  -48.4520 C   0  0  0  0  0  0  0  0  0  0  0  0
  -37.1279   76.6788  -47.9931 N   0  0  0  0  0  0  0  0  0  0  0  0
  -37.6643   77.6932  -48.9021 C   0  0  0  0  0  0  0  0  0  0  0  0
  -39.1406   77.9922  -48.6877 C   0  0  0  0  0  0  0  0  0  0  0  0
  -40.0505   77.9452  -49.6830 C   0  0  0  0  0  0  0  0  0  0  0  0
  -41.4729   78.2027  -49.4286 C   0  0  0  0  0  0  0  0  0  0  0  0
  -42.3214   78.0524  -50.3074 O   0  0  0  0  0  0  0  0  0  0  0  0
  -41.8062   78.6047  -48.0450 C   0  0  0  0  0  0  0  0  0  0  0  0
  -43.1222   78.9797  -47.6908 C   0  0  0  0  0  0  0  0  0  0  0  0
  -43.4162   79.3689  -46.3718 C   0  0  0  0  0  0  0  0  0  0  0  0
  -42.3965   79.3770  -45.4045 C   0  0  0  0  0  0  0  0  0  0  0  0
  -41.0833   79.0031  -45.7519 C   0  0  0  0  0  0  0  0  0  0  0  0
  -40.7756   78.6253  -47.0745 C   0  0  0  0  0  0  0  0  0  0  0  0
  -39.4725   78.2998  -47.3869 O   0  0  0  0  0  0  0  0  0  0  0  0
  -36.8256   77.1741  -46.6505 C   0  0  0  0  0  0  0  0  0  0  0  0
  1  2  1  0
  2  3  1  0
  3  4  1  0
  4  5  1  0
  5  6  2  0
  5  7  1  0
  8  7  1  6
  8  9  1  0
  8 24  1  0
  9 10  1  0
 10 11  1  0
 11 12  1  0
 11 24  1  0
 12 13  1  0
 13 14  2  0
 13 23  1  0
 14 15  1  0
 15 16  2  0
 15 17  1  0
 17 18  2  0
 17 22  1  0
 18 19  1  0
 19 20  2  0
 20 21  1  0
 21 22  2  0
 22 23  1  0
M  CHG  1   8   1
M  END
>  <cluster>  (142) 
cluster_16036

>  <glide_score>  (142) 
-6.71090287365698

>  <mmgbsa_dG>  (142) 
-41.5524223584362

$$$$
No_1009
     RDKit          3D

 18 19  0  0  1  0  0  0  0  0999 V2000
  -36.5888   78.7628  -45.4590 C   0  0  0  0  0  0  0  0  0  0  0  0
  -37.2663   78.0826  -46.6683 C   0  0  2  0  0  0  0  0  0  0  0  0
  -38.7066   78.2029  -46.4071 N   0  0  0  0  0  0  0  0  0  0  0  0
  -39.6395   78.6635  -47.2541 C   0  0  0  0  0  0  0  0  0  0  0  0
  -39.3857   79.0007  -48.4101 O   0  0  0  0  0  0  0  0  0  0  0  0
  -41.0127   78.7606  -46.7185 C   0  0  0  0  0  0  0  0  0  0  0  0
  -41.4856   79.0027  -45.4522 C   0  0  0  0  0  0  0  0  0  0  0  0
  -42.9092   79.0673  -45.3876 C   0  0  0  0  0  0  0  0  0  0  0  0
  -43.5059   78.8978  -46.6086 C   0  0  0  0  0  0  0  0  0  0  0  0
  -42.3267   78.6536  -47.8684 S   0  0  0  0  0  0  0  0  0  0  0  0
  -36.7617   76.7101  -46.9070 N   0  0  0  0  0  0  0  0  0  0  0  0
  -37.3249   76.1835  -48.1548 C   0  0  0  0  0  0  0  0  0  0  0  0
  -37.3396   74.6501  -48.1752 C   0  0  0  0  0  0  0  0  0  0  0  0
  -36.0766   74.0663  -48.5920 N   0  0  0  0  0  0  0  0  0  0  0  0
  -34.8906   74.2062  -47.9891 C   0  0  0  0  0  0  0  0  0  0  0  0
  -33.9284   73.5313  -48.3529 O   0  0  0  0  0  0  0  0  0  0  0  0
  -34.7236   75.1716  -46.8070 C   0  0  0  0  0  0  0  0  0  0  0  0
  -35.2922   76.6037  -46.9664 C   0  0  0  0  0  0  0  0  0  0  0  0
  2  1  1  1
  2  3  1  0
  2 11  1  0
  3  4  1  0
  4  5  2  0
  4  6  1  0
  6  7  2  0
  6 10  1  0
  7  8  1  0
  8  9  2  0
  9 10  1  0
 11 12  1  0
 11 18  1  0
 12 13  1  0
 13 14  1  0
 14 15  1  0
 15 16  2  0
 15 17  1  0
 17 18  1  0
M  END
>  <cluster>  (143) 
cluster_69597

>  <glide_score>  (143) 
-6.58926554177812

>  <mmgbsa_dG>  (143) 
-41.4476442127634

$$$$
No_5244
     RDKit          3D

 20 21  0  0  1  0  0  0  0  0999 V2000
  -37.9026   79.0013  -47.4834 O   0  0  0  0  0  0  0  0  0  0  0  0
  -38.3646   78.6779  -46.3888 C   0  0  0  0  0  0  0  0  0  0  0  0
  -37.5962   78.4091  -45.3256 N   0  0  0  0  0  0  0  0  0  0  0  0
  -36.1377   78.4316  -45.3244 C   0  0  0  0  0  0  0  0  0  0  0  0
  -35.6026   79.8752  -45.3500 C   0  0  0  0  0  0  0  0  0  0  0  0
  -34.1539   79.9910  -45.5149 N   0  0  0  0  0  0  0  0  0  0  0  0
  -33.7502   81.3666  -45.7991 C   0  0  0  0  0  0  0  0  0  0  0  0
  -32.2215   81.5020  -45.9610 C   0  0  0  0  0  0  0  0  0  0  0  0
  -31.5610   81.0092  -44.7956 O   0  0  0  0  0  0  0  0  0  0  0  0
  -31.8951   79.6483  -44.5223 C   0  0  0  0  0  0  0  0  0  0  0  0
  -33.4201   79.4998  -44.3520 C   0  0  0  0  0  0  0  0  0  0  0  0
  -39.6714   78.5972  -46.0916 N   0  0  0  0  0  0  0  0  0  0  0  0
  -40.7975   78.7349  -46.9529 C   0  0  0  0  0  0  0  0  0  0  0  0
  -40.7081   78.6909  -48.3651 C   0  0  0  0  0  0  0  0  0  0  0  0
  -41.8828   78.8308  -49.1261 C   0  0  0  0  0  0  0  0  0  0  0  0
  -41.8275   78.8167  -50.6393 C   0  0  0  0  0  0  0  0  0  0  0  0
  -43.1001   78.9939  -48.5735 N   0  0  0  0  0  0  0  0  0  0  0  0
  -43.1919   79.0243  -47.2306 C   0  0  0  0  0  0  0  0  0  0  0  0
  -42.0797   78.8919  -46.3757 C   0  0  0  0  0  0  0  0  0  0  0  0
  -42.2788   78.9488  -44.8729 C   0  0  0  0  0  0  0  0  0  0  0  0
  1  2  2  0
  2  3  1  0
  2 12  1  0
  3  4  1  0
  4  5  1  0
  5  6  1  0
  6  7  1  0
  6 11  1  0
  7  8  1  0
  8  9  1  0
  9 10  1  0
 10 11  1  0
 12 13  1  0
 13 14  2  0
 13 19  1  0
 14 15  1  0
 15 16  1  0
 15 17  2  0
 17 18  1  0
 18 19  2  0
 19 20  1  0
M  END
>  <cluster>  (144) 
cluster_10520

>  <glide_score>  (144) 
-6.58900714145242

>  <mmgbsa_dG>  (144) 
-41.4093035617043

$$$$
No_4691
     RDKit          3D

 23 25  0  0  1  0  0  0  0  0999 V2000
  -43.9223   79.3472  -48.0068 C   0  0  0  0  0  0  0  0  0  0  0  0
  -42.5427   78.7120  -47.9342 C   0  0  0  0  0  0  0  0  0  0  0  0
  -42.1612   77.9258  -48.7987 O   0  0  0  0  0  0  0  0  0  0  0  0
  -41.7842   79.0033  -46.8093 N   0  0  0  0  0  0  0  0  0  0  0  0
  -42.3771   79.4946  -45.5844 C   0  0  0  0  0  0  0  0  0  0  0  0
  -41.0066   79.2815  -44.9616 C   0  0  0  0  0  0  0  0  0  0  0  0
  -40.5942   78.6027  -46.1902 N   0  0  0  0  0  0  0  0  0  0  0  0
  -39.3982   78.6666  -46.8026 C   0  0  0  0  0  0  0  0  0  0  0  0
  -39.2507   79.0025  -47.9780 O   0  0  0  0  0  0  0  0  0  0  0  0
  -38.3949   78.2527  -46.0092 N   0  0  0  0  0  0  0  0  0  0  0  0
  -36.9683   78.0992  -46.3323 C   0  0  1  0  0  0  0  0  0  0  0  0
  -36.8056   76.8612  -47.2493 C   0  0  0  0  0  0  0  0  0  0  0  0
  -36.4410   79.3399  -47.1048 C   0  0  0  0  0  0  0  0  0  0  0  0
  -34.9258   79.5688  -46.9952 C   0  0  0  0  0  0  0  0  0  0  0  0
  -34.6262   80.3966  -45.8236 N   0  0  0  0  0  0  0  0  0  0  0  0
  -34.0579   81.7222  -46.0925 C   0  0  0  0  0  0  0  0  0  0  0  0
  -34.9054   80.0257  -44.5528 C   0  0  0  0  0  0  0  0  0  0  0  0
  -34.7218   80.7977  -43.6078 O   0  0  0  0  0  0  0  0  0  0  0  0
  -35.3710   78.6431  -44.2602 C   0  0  0  0  0  0  0  0  0  0  0  0
  -35.0705   77.8905  -43.0841 C   0  0  0  0  0  0  0  0  0  0  0  0
  -35.6875   76.6795  -43.1675 C   0  0  0  0  0  0  0  0  0  0  0  0
  -36.3858   76.6903  -44.3476 N   0  0  0  0  0  0  0  0  0  0  0  0
  -36.2311   77.8857  -45.0303 C   0  0  0  0  0  0  0  0  0  0  0  0
  1  2  1  0
  2  3  2  0
  2  4  1  0
  4  5  1  0
  4  7  1  0
  5  6  1  0
  6  7  1  0
  7  8  1  0
  8  9  2  0
  8 10  1  0
 10 11  1  0
 11 12  1  6
 11 13  1  0
 11 23  1  0
 13 14  1  0
 14 15  1  0
 15 16  1  0
 15 17  1  0
 17 18  2  0
 17 19  1  0
 19 20  1  0
 19 23  2  0
 20 21  2  0
 21 22  1  0
 22 23  1  0
M  END
>  <cluster>  (145) 
cluster_126039

>  <glide_score>  (145) 
-6.84852261490343

>  <mmgbsa_dG>  (145) 
-41.4041388558107

$$$$
No_3774
     RDKit          3D

 24 27  0  0  1  0  0  0  0  0999 V2000
  -32.7589   76.6972  -47.1412 C   0  0  0  0  0  0  0  0  0  0  0  0
  -34.1400   76.0385  -47.2853 C   0  0  1  0  0  0  0  0  0  0  0  0
  -34.2034   74.6253  -46.6380 C   0  0  0  0  0  0  0  0  0  0  0  0
  -33.9238   74.6405  -45.2076 N   0  0  0  0  0  0  0  0  0  0  0  0
  -34.3222   73.7133  -44.3253 C   0  0  0  0  0  0  0  0  0  0  0  0
  -34.7221   72.6027  -44.6712 O   0  0  0  0  0  0  0  0  0  0  0  0
  -34.3075   74.1667  -42.9017 C   0  0  0  0  0  0  0  0  0  0  0  0
  -35.4626   73.7316  -42.0182 C   0  0  0  0  0  0  0  0  0  0  0  0
  -34.1003   73.1162  -41.8339 C   0  0  0  0  0  0  0  0  0  0  0  0
  -35.2227   76.9870  -46.8717 N   0  0  2  0  0  0  0  0  0  0  0  0
  -35.3684   77.2332  -45.3976 C   0  0  0  0  0  0  0  0  0  0  0  0
  -36.2213   78.4837  -45.0967 C   0  0  0  0  0  0  0  0  0  0  0  0
  -37.4523   78.4192  -45.9197 C   0  0  0  0  0  0  0  0  0  0  0  0
  -38.6882   79.0019  -45.7055 N   0  0  0  0  0  0  0  0  0  0  0  0
  -39.5145   78.5659  -46.6744 C   0  0  0  0  0  0  0  0  0  0  0  0
  -40.9525   78.7981  -46.7237 C   0  0  0  0  0  0  0  0  0  0  0  0
  -41.6826   79.0107  -45.5340 C   0  0  0  0  0  0  0  0  0  0  0  0
  -43.0749   79.2189  -45.5797 C   0  0  0  0  0  0  0  0  0  0  0  0
  -43.7460   79.2162  -46.8163 C   0  0  0  0  0  0  0  0  0  0  0  0
  -43.0230   79.0008  -48.0052 C   0  0  0  0  0  0  0  0  0  0  0  0
  -41.6335   78.7843  -47.9595 C   0  0  0  0  0  0  0  0  0  0  0  0
  -38.8634   77.8036  -47.5588 N   0  0  0  0  0  0  0  0  0  0  0  0
  -37.5791   77.6701  -47.0500 C   0  0  0  0  0  0  0  0  0  0  0  0
  -36.5237   76.7403  -47.5693 C   0  0  0  0  0  0  0  0  0  0  0  0
  2  1  1  1
  2  3  1  0
  2 10  1  0
  3  4  1  0
  4  5  1  0
  5  6  2  0
  5  7  1  0
  7  8  1  0
  7  9  1  0
  8  9  1  0
 10 11  1  1
 10 24  1  0
 11 12  1  0
 12 13  1  0
 13 14  1  0
 13 23  2  0
 14 15  1  0
 15 16  1  0
 15 22  2  0
 16 17  2  0
 16 21  1  0
 17 18  1  0
 18 19  2  0
 19 20  1  0
 20 21  2  0
 22 23  1  0
 23 24  1  0
M  CHG  1  10   1
M  END
>  <cluster>  (146) 
cluster_72362

>  <glide_score>  (146) 
-7.30760238814253

>  <mmgbsa_dG>  (146) 
-41.398255083579

$$$$
No_4326
     RDKit          3D

 21 23  0  0  1  0  0  0  0  0999 V2000
  -35.0898   73.3299  -41.6077 C   0  0  0  0  0  0  0  0  0  0  0  0
  -34.7010   73.6516  -43.0094 C   0  0  0  0  0  0  0  0  0  0  0  0
  -34.3222   72.6978  -43.8537 N   0  0  0  0  0  0  0  0  0  0  0  0
  -34.0520   73.4026  -45.0354 O   0  0  0  0  0  0  0  0  0  0  0  0
  -34.3222   74.6983  -44.7711 C   0  0  0  0  0  0  0  0  0  0  0  0
  -34.1681   75.6891  -45.8828 C   0  0  0  0  0  0  0  0  0  0  0  0
  -35.5222   76.2769  -46.0128 N   0  0  0  0  0  0  0  0  0  0  0  0
  -35.9774   76.4279  -47.4183 C   0  0  0  0  0  0  0  0  0  0  0  0
  -37.4609   76.8442  -47.4867 C   0  0  0  0  0  0  0  0  0  0  0  0
  -37.7844   78.0775  -46.6063 C   0  0  0  0  0  0  0  0  0  0  0  0
  -39.2238   78.2304  -46.4072 N   0  0  0  0  0  0  0  0  0  0  0  0
  -40.1113   78.7029  -47.2944 C   0  0  0  0  0  0  0  0  0  0  0  0
  -39.7910   79.0026  -48.4431 O   0  0  0  0  0  0  0  0  0  0  0  0
  -41.3848   78.7425  -46.8427 N   0  0  0  0  0  0  0  0  0  0  0  0
  -42.5471   78.9696  -47.6770 C   0  0  0  0  0  0  0  0  0  0  0  0
  -43.5716   79.5150  -46.6834 C   0  0  0  0  0  0  0  0  0  0  0  0
  -43.1340   78.9984  -45.4383 O   0  0  0  0  0  0  0  0  0  0  0  0
  -41.7451   78.9869  -45.4650 C   0  0  0  0  0  0  0  0  0  0  0  0
  -37.1350   77.9632  -45.2139 C   0  0  0  0  0  0  0  0  0  0  0  0
  -35.6626   77.5561  -45.2770 C   0  0  0  0  0  0  0  0  0  0  0  0
  -34.7222   74.9167  -43.5183 N   0  0  0  0  0  0  0  0  0  0  0  0
  1  2  1  0
  2  3  2  0
  2 21  1  0
  3  4  1  0
  4  5  1  0
  5  6  1  0
  5 21  2  0
  6  7  1  0
  7  8  1  0
  7 20  1  0
  8  9  1  0
  9 10  1  0
 10 11  1  0
 10 19  1  0
 11 12  1  0
 12 13  2  0
 12 14  1  0
 14 15  1  0
 14 18  1  0
 15 16  1  0
 16 17  1  0
 17 18  1  0
 19 20  1  0
M  CHG  1   7   1
M  END
>  <cluster>  (147) 
cluster_30706

>  <glide_score>  (147) 
-6.98343674797531

>  <mmgbsa_dG>  (147) 
-41.3815176238641

$$$$
No_5143
     RDKit          3D

 23 25  0  0  1  0  0  0  0  0999 V2000
  -35.6479   70.7476  -41.8721 C   0  0  0  0  0  0  0  0  0  0  0  0
  -34.9329   71.8972  -42.5558 C   0  0  0  0  0  0  0  0  0  0  0  0
  -34.3225   71.6969  -43.6075 O   0  0  0  0  0  0  0  0  0  0  0  0
  -35.0726   73.1001  -41.9931 N   0  0  0  0  0  0  0  0  0  0  0  0
  -34.5971   74.3424  -42.5798 C   0  0  0  0  0  0  0  0  0  0  0  0
  -35.6969   75.4036  -42.5535 C   0  0  0  0  0  0  0  0  0  0  0  0
  -36.7851   75.2269  -42.0078 O   0  0  0  0  0  0  0  0  0  0  0  0
  -35.3929   76.7149  -43.2681 C   0  0  0  0  0  0  0  0  0  0  0  0
  -35.8975   76.6028  -44.6542 N   0  0  2  0  0  0  0  0  0  0  0  0
  -34.9124   76.7697  -45.7412 C   0  0  0  0  0  0  0  0  0  0  0  0
  -35.7621   77.1683  -46.9510 C   0  0  0  0  0  0  0  0  0  0  0  0
  -36.9244   77.8049  -46.3638 N   0  0  0  0  0  0  0  0  0  0  0  0
  -38.0709   78.1084  -47.0982 C   0  0  0  0  0  0  0  0  0  0  0  0
  -38.3202   78.2375  -48.4409 C   0  0  0  0  0  0  0  0  0  0  0  0
  -39.6595   78.5701  -48.5991 N   0  0  0  0  0  0  0  0  0  0  0  0
  -40.1628   78.6026  -47.3645 C   0  0  0  0  0  0  0  0  0  0  0  0
  -41.5318   78.8542  -46.9300 C   0  0  0  0  0  0  0  0  0  0  0  0
  -42.5879   78.9934  -47.7375 N   0  0  0  0  0  0  0  0  0  0  0  0
  -43.7684   79.2566  -47.0368 C   0  0  0  0  0  0  0  0  0  0  0  0
  -43.6004   79.3009  -45.6773 C   0  0  0  0  0  0  0  0  0  0  0  0
  -41.9459   79.0036  -45.2240 S   0  0  0  0  0  0  0  0  0  0  0  0
  -39.2307   78.3466  -46.4068 O   0  0  0  0  0  0  0  0  0  0  0  0
  -37.0089   77.5187  -44.9469 C   0  0  0  0  0  0  0  0  0  0  0  0
  1  2  1  0
  2  3  2  0
  2  4  1  0
  4  5  1  0
  5  6  1  0
  6  7  2  0
  6  8  1  0
  9  8  1  1
  9 10  1  0
  9 23  1  0
 10 11  1  0
 11 12  1  0
 12 13  1  0
 12 23  1  0
 13 14  2  0
 13 22  1  0
 14 15  1  0
 15 16  2  0
 16 17  1  0
 16 22  1  0
 17 18  2  0
 17 21  1  0
 18 19  1  0
 19 20  2  0
 20 21  1  0
M  CHG  1   9   1
M  END
>  <cluster>  (148) 
cluster_100111

>  <glide_score>  (148) 
-6.74712880768309

>  <mmgbsa_dG>  (148) 
-41.3474603993163

$$$$
No_1920
     RDKit          3D

 22 24  0  0  1  0  0  0  0  0999 V2000
  -39.8183   78.7565  -48.5000 O   0  0  0  0  0  0  0  0  0  0  0  0
  -40.0780   78.6027  -47.3076 C   0  0  0  0  0  0  0  0  0  0  0  0
  -39.1645   78.2035  -46.4084 N   0  0  0  0  0  0  0  0  0  0  0  0
  -37.7683   77.8956  -46.7203 C   0  0  0  0  0  0  0  0  0  0  0  0
  -36.7568   78.8200  -46.0635 C   0  0  0  0  0  0  0  0  0  0  0  0
  -37.1237   80.0791  -45.5387 C   0  0  0  0  0  0  0  0  0  0  0  0
  -36.1611   80.8907  -44.9140 C   0  0  0  0  0  0  0  0  0  0  0  0
  -34.8327   80.4368  -44.8076 C   0  0  0  0  0  0  0  0  0  0  0  0
  -34.4376   79.2002  -45.3591 C   0  0  0  0  0  0  0  0  0  0  0  0
  -35.4133   78.3967  -45.9842 C   0  0  0  0  0  0  0  0  0  0  0  0
  -33.0156   78.6735  -45.2071 C   0  0  0  0  0  0  0  0  0  0  0  0
  -31.9190   79.4030  -45.8432 N   0  0  0  0  0  0  0  0  0  0  0  0
  -31.5946   80.7042  -45.7887 C   0  0  0  0  0  0  0  0  0  0  0  0
  -30.4401   81.0622  -46.0089 O   0  0  0  0  0  0  0  0  0  0  0  0
  -32.6521   81.7760  -45.5217 C   0  0  0  0  0  0  0  0  0  0  0  0
  -33.6040   81.4718  -43.9650 S   0  0  0  0  0  0  0  0  0  0  0  0
  -34.3221   82.7750  -43.6077 O   0  0  0  0  0  0  0  0  0  0  0  0
  -41.3230   78.7430  -46.8092 N   0  0  0  0  0  0  0  0  0  0  0  0
  -42.5059   78.8639  -47.6614 C   0  0  0  0  0  0  0  0  0  0  0  0
  -43.6958   78.8981  -46.7056 C   0  0  0  0  0  0  0  0  0  0  0  0
  -43.1145   79.5267  -45.4493 C   0  0  0  0  0  0  0  0  0  0  0  0
  -41.6639   79.0453  -45.4171 C   0  0  0  0  0  0  0  0  0  0  0  0
  1  2  2  0
  2  3  1  0
  2 18  1  0
  3  4  1  0
  4  5  1  0
  5  6  2  0
  5 10  1  0
  6  7  1  0
  7  8  2  0
  8  9  1  0
  8 16  1  0
  9 10  2  0
  9 11  1  0
 11 12  1  0
 12 13  1  0
 13 14  2  0
 13 15  1  0
 16 15  1  6
 16 17  2  0
 18 19  1  0
 18 22  1  0
 19 20  1  0
 20 21  1  0
 21 22  1  0
M  END
>  <cluster>  (149) 
cluster_59956

>  <glide_score>  (149) 
-6.51381407707878

>  <mmgbsa_dG>  (149) 
-41.3341696695061

$$$$
No_2603
     RDKit          3D

 23 24  0  0  1  0  0  0  0  0999 V2000
  -32.5889   81.6098  -40.7581 C   0  0  0  0  0  0  0  0  0  0  0  0
  -32.8524   80.6027  -41.7751 N   0  0  0  0  0  0  0  0  0  0  0  0
  -33.5242   80.8164  -42.9112 C   0  0  0  0  0  0  0  0  0  0  0  0
  -33.9853   81.9195  -43.2080 O   0  0  0  0  0  0  0  0  0  0  0  0
  -33.7583   79.6101  -43.8326 C   0  0  2  0  0  0  0  0  0  0  0  0
  -32.8691   79.7213  -45.0848 C   0  0  0  0  0  0  0  0  0  0  0  0
  -33.2808   78.7333  -46.1725 C   0  0  0  0  0  0  0  0  0  0  0  0
  -32.4923   78.4345  -47.0633 O   0  0  0  0  0  0  0  0  0  0  0  0
  -34.5229   78.2413  -46.1338 N   0  0  0  0  0  0  0  0  0  0  0  0
  -35.5287   78.5818  -45.1289 C   0  0  2  0  0  0  0  0  0  0  0  0
  -36.8024   79.1184  -45.7941 C   0  0  0  0  0  0  0  0  0  0  0  0
  -36.7188   79.8606  -46.7707 O   0  0  0  0  0  0  0  0  0  0  0  0
  -37.9686   78.8170  -45.2077 N   0  0  0  0  0  0  0  0  0  0  0  0
  -39.2042   79.5797  -45.3645 C   0  0  0  0  0  0  0  0  0  0  0  0
  -40.1832   79.0775  -46.4076 C   0  0  0  0  0  0  0  0  0  0  0  0
  -39.6988   78.8834  -47.6545 N   0  0  0  0  0  0  0  0  0  0  0  0
  -40.5789   78.5974  -48.6390 C   0  0  0  0  0  0  0  0  0  0  0  0
  -39.9850   78.3951  -50.0164 C   0  0  0  0  0  0  0  0  0  0  0  0
  -41.9682   78.4864  -48.4259 C   0  0  0  0  0  0  0  0  0  0  0  0
  -42.4664   78.6930  -47.1256 C   0  0  0  0  0  0  0  0  0  0  0  0
  -43.9513   78.6088  -46.8503 C   0  0  0  0  0  0  0  0  0  0  0  0
  -41.5567   79.0023  -46.0971 C   0  0  0  0  0  0  0  0  0  0  0  0
  -35.1219   79.6460  -44.2415 O   0  0  0  0  0  0  0  0  0  0  0  0
  1  2  1  0
  2  3  1  0
  3  4  2  0
  5  3  1  1
  5  6  1  0
  5 23  1  0
  6  7  1  0
  7  8  2  0
  7  9  1  0
  9 10  1  0
 10 11  1  6
 10 23  1  0
 11 12  2  0
 11 13  1  0
 13 14  1  0
 14 15  1  0
 15 16  2  0
 15 22  1  0
 16 17  1  0
 17 18  1  0
 17 19  2  0
 19 20  1  0
 20 21  1  0
 20 22  2  0
M  END
>  <cluster>  (150) 
cluster_87019

>  <glide_score>  (150) 
-6.57339824575006

>  <mmgbsa_dG>  (150) 
-41.3303313383803

$$$$
No_2659
     RDKit          3D

 21 23  0  0  1  0  0  0  0  0999 V2000
  -44.9641   78.9994  -46.5155 C   0  0  0  0  0  0  0  0  0  0  0  0
  -43.7593   79.6789  -45.8592 C   0  0  0  0  0  0  0  0  0  0  0  0
  -42.4818   79.2076  -46.3660 N   0  0  0  0  0  0  0  0  0  0  0  0
  -41.3689   79.0029  -45.5829 C   0  0  0  0  0  0  0  0  0  0  0  0
  -40.2536   78.6124  -46.4249 C   0  0  0  0  0  0  0  0  0  0  0  0
  -38.9610   78.2162  -46.0079 N   0  0  0  0  0  0  0  0  0  0  0  0
  -37.8378   78.3156  -46.7343 C   0  0  0  0  0  0  0  0  0  0  0  0
  -37.7496   78.9993  -47.7530 O   0  0  0  0  0  0  0  0  0  0  0  0
  -36.5957   77.5894  -46.2005 C   0  0  0  0  0  0  0  0  0  0  0  0
  -35.4491   78.4845  -45.9355 N   0  0  0  0  0  0  0  0  0  0  0  0
  -34.2310   77.7343  -45.6361 C   0  0  0  0  0  0  0  0  0  0  0  0
  -33.0537   78.7220  -45.5693 C   0  0  0  0  0  0  0  0  0  0  0  0
  -33.3127   79.8241  -44.6477 N   0  0  0  0  0  0  0  0  0  0  0  0
  -34.5401   80.2615  -44.3383 C   0  0  0  0  0  0  0  0  0  0  0  0
  -34.7217   81.2348  -43.6076 O   0  0  0  0  0  0  0  0  0  0  0  0
  -35.7523   79.4910  -44.8860 C   0  0  0  0  0  0  0  0  0  0  0  0
  -40.8684   78.6054  -47.7090 C   0  0  0  0  0  0  0  0  0  0  0  0
  -40.4474   78.3130  -48.9009 N   0  0  0  0  0  0  0  0  0  0  0  0
  -41.6294   78.5856  -49.6454 C   0  0  0  0  0  0  0  0  0  0  0  0
  -42.7049   79.0032  -48.8701 C   0  0  0  0  0  0  0  0  0  0  0  0
  -42.1407   78.9732  -47.6206 N   0  0  0  0  0  0  0  0  0  0  0  0
  1  2  1  0
  2  3  1  0
  3  4  1  0
  3 21  1  0
  4  5  2  0
  5  6  1  0
  5 17  1  0
  6  7  1  0
  7  8  2  0
  7  9  1  0
  9 10  1  0
 10 11  1  0
 10 16  1  0
 11 12  1  0
 12 13  1  0
 13 14  1  0
 14 15  2  0
 14 16  1  0
 17 18  2  0
 17 21  1  0
 18 19  1  0
 19 20  2  0
 20 21  1  0
M  END
>  <cluster>  (151) 
cluster_81799

>  <glide_score>  (151) 
-6.62176028898774

>  <mmgbsa_dG>  (151) 
-41.1941478621156

$$$$
No_739
     RDKit          3D

 19 20  0  0  1  0  0  0  0  0999 V2000
  -44.3207   79.3911  -45.8579 C   0  0  0  0  0  0  0  0  0  0  0  0
  -42.9387   79.0774  -46.3047 C   0  0  0  0  0  0  0  0  0  0  0  0
  -41.7246   79.0027  -45.6800 C   0  0  0  0  0  0  0  0  0  0  0  0
  -40.7978   78.6680  -46.7038 C   0  0  0  0  0  0  0  0  0  0  0  0
  -39.4152   78.4515  -46.4482 N   0  0  0  0  0  0  0  0  0  0  0  0
  -38.3930   78.6027  -47.3118 C   0  0  0  0  0  0  0  0  0  0  0  0
  -38.5385   79.0023  -48.4634 O   0  0  0  0  0  0  0  0  0  0  0  0
  -36.9551   78.3304  -46.8378 C   0  0  2  0  0  0  0  0  0  0  0  0
  -36.4986   76.8922  -47.1645 C   0  0  0  0  0  0  0  0  0  0  0  0
  -35.9022   76.3353  -45.9286 N   0  0  1  0  0  0  0  0  0  0  0  0
  -34.4163   76.3320  -45.9705 C   0  0  0  0  0  0  0  0  0  0  0  0
  -36.5250   77.0892  -44.8088 C   0  0  1  0  0  0  0  0  0  0  0  0
  -35.8353   76.9635  -43.4403 C   0  0  0  0  0  0  0  0  0  0  0  0
  -35.9682   75.7981  -42.8076 N   0  0  0  0  0  0  0  0  0  0  0  0
  -35.1882   77.8924  -42.9653 O   0  0  0  0  0  0  0  0  0  0  0  0
  -36.6928   78.5184  -45.3331 C   0  0  0  0  0  0  0  0  0  0  0  0
  -41.4983   78.5466  -47.8796 C   0  0  0  0  0  0  0  0  0  0  0  0
  -41.2007   78.1791  -49.2961 C   0  0  0  0  0  0  0  0  0  0  0  0
  -42.8107   78.8060  -47.6330 O   0  0  0  0  0  0  0  0  0  0  0  0
  1  2  1  0
  2  3  2  0
  2 19  1  0
  3  4  1  0
  4  5  1  0
  4 17  2  0
  5  6  1  0
  6  7  2  0
  8  6  1  1
  8  9  1  0
  8 16  1  0
  9 10  1  0
 10 11  1  6
 10 12  1  0
 12 13  1  1
 12 16  1  0
 13 14  1  0
 13 15  2  0
 17 18  1  0
 17 19  1  0
M  CHG  1  10   1
M  END
>  <cluster>  (152) 
cluster_6015

>  <glide_score>  (152) 
-6.78390902325412

>  <mmgbsa_dG>  (152) 
-41.1899130542224

$$$$
No_5131
     RDKit          3D

 22 24  0  0  1  0  0  0  0  0999 V2000
  -37.5285   73.8219  -49.6763 C   0  0  0  0  0  0  0  0  0  0  0  0
  -36.2657   74.6562  -49.4119 C   0  0  0  0  0  0  0  0  0  0  0  0
  -36.1970   75.0698  -48.0147 N   0  0  0  0  0  0  0  0  0  0  0  0
  -34.9450   75.7428  -47.6995 C   0  0  0  0  0  0  0  0  0  0  0  0
  -35.2603   76.4204  -46.3634 C   0  0  0  0  0  0  0  0  0  0  0  0
  -36.7229   76.6027  -46.3717 N   0  0  1  0  0  0  0  0  0  0  0  0
  -37.2050   77.9653  -46.0244 C   0  0  0  0  0  0  0  0  0  0  0  0
  -38.6521   78.2027  -46.0076 N   0  0  0  0  0  0  0  0  0  0  0  0
  -39.3683   78.6837  -47.0392 C   0  0  0  0  0  0  0  0  0  0  0  0
  -38.8256   79.0028  -48.0962 O   0  0  0  0  0  0  0  0  0  0  0  0
  -40.8672   78.8081  -46.8388 C   0  0  0  0  0  0  0  0  0  0  0  0
  -41.3593   79.0027  -45.5225 C   0  0  0  0  0  0  0  0  0  0  0  0
  -42.7296   79.1779  -45.2643 C   0  0  0  0  0  0  0  0  0  0  0  0
  -43.6435   79.1735  -46.3238 C   0  0  0  0  0  0  0  0  0  0  0  0
  -43.1809   79.0008  -47.6370 C   0  0  0  0  0  0  0  0  0  0  0  0
  -41.8044   78.8267  -47.9259 C   0  0  0  0  0  0  0  0  0  0  0  0
  -41.4036   78.6773  -49.2721 N   0  0  0  0  0  0  0  0  0  0  0  0
  -42.0721   79.3799  -50.3532 C   0  0  0  0  0  0  0  0  0  0  0  0
  -41.6273   78.6194  -51.5988 C   0  0  0  0  0  0  0  0  0  0  0  0
  -41.5417   77.2901  -51.1100 O   0  0  0  0  0  0  0  0  0  0  0  0
  -41.0181   77.4027  -49.8287 C   0  0  0  0  0  0  0  0  0  0  0  0
  -37.1835   76.0834  -47.6709 C   0  0  0  0  0  0  0  0  0  0  0  0
  1  2  1  0
  2  3  1  0
  3  4  1  0
  3 22  1  0
  4  5  1  0
  5  6  1  0
  6  7  1  6
  6 22  1  0
  7  8  1  0
  8  9  1  0
  9 10  2  0
  9 11  1  0
 11 12  2  0
 11 16  1  0
 12 13  1  0
 13 14  2  0
 14 15  1  0
 15 16  2  0
 16 17  1  0
 17 18  1  0
 17 21  1  0
 18 19  1  0
 19 20  1  0
 20 21  1  0
M  CHG  1   6   1
M  END
>  <cluster>  (153) 
cluster_10407

>  <glide_score>  (153) 
-6.73094572013826

>  <mmgbsa_dG>  (153) 
-41.0671422417508

$$$$
No_3524
     RDKit          3D

 24 27  0  0  1  0  0  0  0  0999 V2000
  -36.8564   75.7391  -41.9006 C   0  0  0  0  0  0  0  0  0  0  0  0
  -35.8874   74.7656  -42.3511 N   0  0  0  0  0  0  0  0  0  0  0  0
  -35.7249   73.4839  -41.8463 C   0  0  0  0  0  0  0  0  0  0  0  0
  -34.7136   72.9002  -42.5644 C   0  0  0  0  0  0  0  0  0  0  0  0
  -34.2467   73.8029  -43.5115 N   0  0  0  0  0  0  0  0  0  0  0  0
  -34.9564   74.9119  -43.3138 C   0  0  0  0  0  0  0  0  0  0  0  0
  -34.7222   76.1879  -44.0739 C   0  0  0  0  0  0  0  0  0  0  0  0
  -35.9077   76.6030  -44.8023 N   0  0  0  0  0  0  0  0  0  0  0  0
  -36.3428   77.8582  -44.9273 C   0  0  0  0  0  0  0  0  0  0  0  0
  -35.8082   78.8378  -44.4053 O   0  0  0  0  0  0  0  0  0  0  0  0
  -37.5206   77.8947  -45.5528 N   0  0  0  0  0  0  0  0  0  0  0  0
  -37.7271   77.7391  -46.9929 C   0  0  0  0  0  0  0  0  0  0  0  0
  -39.1255   78.2889  -46.7296 C   0  0  0  0  0  0  0  0  0  0  0  0
  -39.6132   79.2515  -47.6592 O   0  0  0  0  0  0  0  0  0  0  0  0
  -40.8307   78.9649  -48.3554 C   0  0  2  0  0  0  0  0  0  0  0  0
  -42.0338   78.9816  -47.4300 C   0  0  0  0  0  0  0  0  0  0  0  0
  -43.3364   79.0004  -47.8584 C   0  0  0  0  0  0  0  0  0  0  0  0
  -44.2967   79.0049  -46.8055 C   0  0  0  0  0  0  0  0  0  0  0  0
  -43.7217   79.0183  -45.5652 C   0  0  0  0  0  0  0  0  0  0  0  0
  -41.9879   79.0033  -45.6731 S   0  0  0  0  0  0  0  0  0  0  0  0
  -40.7577   77.7354  -49.2468 C   0  0  0  0  0  0  0  0  0  0  0  0
  -40.4685   77.8655  -50.7267 C   0  0  0  0  0  0  0  0  0  0  0  0
  -39.4617   77.2012  -49.8198 C   0  0  0  0  0  0  0  0  0  0  0  0
  -38.4892   78.9863  -45.5304 C   0  0  0  0  0  0  0  0  0  0  0  0
  1  2  1  0
  2  3  1  0
  2  6  1  0
  3  4  2  0
  4  5  1  0
  5  6  2  0
  6  7  1  0
  7  8  1  0
  8  9  1  0
  9 10  2  0
  9 11  1  0
 11 12  1  0
 11 24  1  0
 12 13  1  0
 13 14  1  0
 13 24  1  0
 15 14  1  1
 15 16  1  0
 15 21  1  0
 16 17  2  0
 16 20  1  0
 17 18  1  0
 18 19  2  0
 19 20  1  0
 21 22  1  0
 21 23  1  0
 22 23  1  0
M  END
>  <cluster>  (154) 
cluster_51008

>  <glide_score>  (154) 
-6.67752288189609

>  <mmgbsa_dG>  (154) 
-41.0149538665428

$$$$
No_4594
     RDKit          3D

 25 27  0  0  1  0  0  0  0  0999 V2000
  -41.0941   79.8548  -51.5242 C   0  0  0  0  0  0  0  0  0  0  0  0
  -40.8540   78.4854  -50.8732 C   0  0  0  0  0  0  0  0  0  0  0  0
  -40.4852   78.6035  -49.4005 C   0  0  0  0  0  0  0  0  0  0  0  0
  -39.1628   78.7354  -49.1859 N   0  0  0  0  0  0  0  0  0  0  0  0
  -38.7006   78.9040  -47.9534 N   0  0  0  0  0  0  0  0  0  0  0  0
  -39.5347   78.9130  -46.8916 C   0  0  0  0  0  0  0  0  0  0  0  0
  -38.8145   79.2511  -45.5872 C   0  0  0  0  0  0  0  0  0  0  0  0
  -37.7987   78.2662  -45.2076 N   0  0  0  0  0  0  0  0  0  0  0  0
  -36.1378   78.7049  -45.2913 S   0  0  0  0  0  0  0  0  0  0  0  0
  -35.7528   78.7461  -46.7080 O   0  0  0  0  0  0  0  0  0  0  0  0
  -35.9216   79.8630  -44.4084 O   0  0  0  0  0  0  0  0  0  0  0  0
  -35.4271   77.3051  -44.5752 N   0  0  0  0  0  0  0  0  0  0  0  0
  -35.3700   77.1379  -43.1189 C   0  0  0  0  0  0  0  0  0  0  0  0
  -36.1535   75.8995  -42.6483 C   0  0  0  0  0  0  0  0  0  0  0  0
  -35.4033   74.6461  -42.6932 N   0  0  0  0  0  0  0  0  0  0  0  0
  -34.3467   74.3091  -43.5277 C   0  0  0  0  0  0  0  0  0  0  0  0
  -33.9333   73.0430  -43.2202 C   0  0  0  0  0  0  0  0  0  0  0  0
  -34.7905   72.5564  -42.1969 C   0  0  0  0  0  0  0  0  0  0  0  0
  -35.6878   73.5442  -41.9079 C   0  0  0  0  0  0  0  0  0  0  0  0
  -40.9444   78.7285  -47.0090 C   0  0  0  0  0  0  0  0  0  0  0  0
  -41.7853   78.6836  -45.7382 C   0  0  0  0  0  0  0  0  0  0  0  0
  -42.7757   79.7743  -45.4043 C   0  0  0  0  0  0  0  0  0  0  0  0
  -43.2513   78.3472  -45.5541 C   0  0  0  0  0  0  0  0  0  0  0  0
  -41.4373   78.6193  -48.3460 C   0  0  0  0  0  0  0  0  0  0  0  0
  -42.9216   78.5970  -48.6759 C   0  0  0  0  0  0  0  0  0  0  0  0
  1  2  1  0
  2  3  1  0
  3  4  2  0
  3 24  1  0
  4  5  1  0
  5  6  2  0
  6  7  1  0
  6 20  1  0
  7  8  1  0
  8  9  1  0
  9 10  2  0
  9 11  2  0
  9 12  1  0
 12 13  1  0
 13 14  1  0
 14 15  1  0
 15 16  1  0
 15 19  1  0
 16 17  2  0
 17 18  1  0
 18 19  2  0
 20 21  1  0
 20 24  2  0
 21 22  1  0
 21 23  1  0
 22 23  1  0
 24 25  1  0
M  END
>  <cluster>  (155) 
cluster_110114

>  <glide_score>  (155) 
-6.58994265124498

>  <mmgbsa_dG>  (155) 
-41.0054611317537

$$$$
No_2584
     RDKit          3D

 24 27  0  0  1  0  0  0  0  0999 V2000
  -38.6350   79.0027  -48.4378 O   0  0  0  0  0  0  0  0  0  0  0  0
  -38.4228   78.5455  -47.3128 C   0  0  0  0  0  0  0  0  0  0  0  0
  -39.3999   78.3513  -46.4078 N   0  0  0  0  0  0  0  0  0  0  0  0
  -40.7790   78.6543  -46.5688 C   0  0  0  0  0  0  0  0  0  0  0  0
  -41.4724   79.0027  -45.3896 C   0  0  0  0  0  0  0  0  0  0  0  0
  -42.8433   79.3140  -45.4530 C   0  0  0  0  0  0  0  0  0  0  0  0
  -43.4896   79.2698  -46.6991 C   0  0  0  0  0  0  0  0  0  0  0  0
  -42.7288   78.9133  -47.8258 C   0  0  0  0  0  0  0  0  0  0  0  0
  -41.4169   78.6028  -47.7633 N   0  0  0  0  0  0  0  0  0  0  0  0
  -37.1800   78.3374  -46.8129 N   0  0  0  0  0  0  0  0  0  0  0  0
  -36.7453   77.0723  -46.2092 C   0  0  0  0  0  0  0  0  0  0  0  0
  -35.2493   77.2444  -45.8327 C   0  0  2  0  0  0  0  0  0  0  0  0
  -34.3604   76.0171  -46.1550 C   0  0  0  0  0  0  0  0  0  0  0  0
  -34.3222   74.8880  -45.1150 C   0  0  0  0  0  0  0  0  0  0  0  0
  -33.8532   73.8048  -45.4690 O   0  0  0  0  0  0  0  0  0  0  0  0
  -34.7222   75.1385  -43.8418 N   0  0  0  0  0  0  0  0  0  0  0  0
  -34.4657   74.2499  -42.7366 C   0  0  0  0  0  0  0  0  0  0  0  0
  -35.6370   73.6270  -42.0072 C   0  0  0  0  0  0  0  0  0  0  0  0
  -34.7187   72.7580  -42.8280 C   0  0  0  0  0  0  0  0  0  0  0  0
  -35.3929   76.3835  -43.4306 C   0  0  0  0  0  0  0  0  0  0  0  0
  -35.1099   77.5934  -44.3379 C   0  0  0  0  0  0  0  0  0  0  0  0
  -34.8155   78.4327  -46.7065 C   0  0  0  0  0  0  0  0  0  0  0  0
  -36.1112   79.0945  -47.1262 C   0  0  0  0  0  0  0  0  0  0  0  0
  -36.1145   80.2027  -47.6637 O   0  0  0  0  0  0  0  0  0  0  0  0
  1  2  2  0
  2  3  1  0
  2 10  1  0
  3  4  1  0
  4  5  2  0
  4  9  1  0
  5  6  1  0
  6  7  2  0
  7  8  1  0
  8  9  2  0
 10 11  1  0
 10 23  1  0
 12 11  1  1
 12 13  1  0
 12 22  1  0
 12 21  1  0
 13 14  1  0
 14 15  2  0
 14 16  1  0
 16 17  1  0
 16 20  1  0
 17 18  1  0
 17 19  1  0
 18 19  1  0
 20 21  1  0
 22 23  1  0
 23 24  2  0
M  END
>  <cluster>  (156) 
cluster_71172

>  <glide_score>  (156) 
-6.7235695060778

>  <mmgbsa_dG>  (156) 
-40.9717852891117

$$$$
No_2559
     RDKit          3D

 21 23  0  0  1  0  0  0  0  0999 V2000
  -37.8155   74.6033  -48.8568 C   0  0  0  0  0  0  0  0  0  0  0  0
  -37.0590   75.8693  -48.4760 C   0  0  0  0  0  0  0  0  0  0  0  0
  -36.4788   76.5218  -49.3428 O   0  0  0  0  0  0  0  0  0  0  0  0
  -37.0648   76.2049  -47.1769 N   0  0  0  0  0  0  0  0  0  0  0  0
  -36.3508   77.3381  -46.5726 C   0  0  2  0  0  0  0  0  0  0  0  0
  -35.2933   76.7342  -45.6132 C   0  0  0  0  0  0  0  0  0  0  0  0
  -34.7578   77.8559  -44.8594 N   0  0  2  0  0  0  0  0  0  0  0  0
  -33.8289   78.8794  -45.2261 C   0  0  0  0  0  0  0  0  0  0  0  0
  -34.6192   79.5679  -44.0828 C   0  0  2  0  0  0  0  0  0  0  0  0
  -34.7830   78.1606  -43.4629 C   0  0  0  0  0  0  0  0  0  0  0  0
  -35.9262   80.1011  -44.4091 O   0  0  0  0  0  0  0  0  0  0  0  0
  -36.6073   79.8387  -45.6637 C   0  0  0  0  0  0  0  0  0  0  0  0
  -37.2889   78.4259  -45.8899 C   0  0  1  0  0  0  0  0  0  0  0  0
  -38.5902   78.6750  -46.6865 C   0  0  0  0  0  0  0  0  0  0  0  0
  -38.5182   78.9863  -47.8749 O   0  0  0  0  0  0  0  0  0  0  0  0
  -39.7475   78.6027  -46.0077 N   0  0  0  0  0  0  0  0  0  0  0  0
  -40.9959   78.8014  -46.4962 C   0  0  0  0  0  0  0  0  0  0  0  0
  -42.0929   79.0027  -45.7083 C   0  0  0  0  0  0  0  0  0  0  0  0
  -43.1845   79.1336  -46.6119 C   0  0  0  0  0  0  0  0  0  0  0  0
  -42.6591   79.0025  -47.8698 C   0  0  0  0  0  0  0  0  0  0  0  0
  -41.3116   78.7948  -47.8203 O   0  0  0  0  0  0  0  0  0  0  0  0
  1  2  1  0
  2  3  2  0
  2  4  1  0
  5  4  1  1
  5  6  1  0
  5 13  1  0
  7  6  1  1
  7  8  1  0
  7 10  1  0
  9  8  1  6
  9 10  1  0
  9 11  1  0
 11 12  1  0
 12 13  1  0
 13 14  1  6
 14 15  2  0
 14 16  1  0
 16 17  1  0
 17 18  2  0
 17 21  1  0
 18 19  1  0
 19 20  2  0
 20 21  1  0
M  CHG  1   7   1
M  END
>  <cluster>  (157) 
cluster_81699

>  <glide_score>  (157) 
-6.65149069501086

>  <mmgbsa_dG>  (157) 
-40.9405591990071

$$$$
No_3893
     RDKit          3D

 25 27  0  0  1  0  0  0  0  0999 V2000
  -44.9180   78.7615  -46.3005 C   0  0  0  0  0  0  0  0  0  0  0  0
  -43.9936   79.7250  -47.0189 C   0  0  0  0  0  0  0  0  0  0  0  0
  -42.6559   79.1987  -47.1151 N   0  0  0  0  0  0  0  0  0  0  0  0
  -42.1309   78.8805  -48.3246 N   0  0  0  0  0  0  0  0  0  0  0  0
  -40.8602   78.6027  -48.0778 C   0  0  0  0  0  0  0  0  0  0  0  0
  -40.5802   78.7376  -46.6892 C   0  0  0  0  0  0  0  0  0  0  0  0
  -39.3626   78.5701  -46.0071 N   0  0  0  0  0  0  0  0  0  0  0  0
  -38.1430   78.5461  -46.5431 C   0  0  0  0  0  0  0  0  0  0  0  0
  -37.8578   78.9987  -47.6508 O   0  0  0  0  0  0  0  0  0  0  0  0
  -37.2700   77.9666  -45.7117 N   0  0  0  0  0  0  0  0  0  0  0  0
  -35.8870   77.6202  -46.0367 C   0  0  1  0  0  0  0  0  0  0  0  0
  -35.0708   77.2877  -44.7616 C   0  0  0  0  0  0  0  0  0  0  0  0
  -35.6757   76.2027  -43.9438 N   0  0  0  0  0  0  0  0  0  0  0  0
  -34.7226   75.2644  -43.3231 C   0  0  0  0  0  0  0  0  0  0  0  0
  -35.5494   74.4897  -42.2948 C   0  0  0  0  0  0  0  0  0  0  0  0
  -36.6773   75.4481  -41.8938 C   0  0  0  0  0  0  0  0  0  0  0  0
  -36.5501   76.6444  -42.8396 C   0  0  0  0  0  0  0  0  0  0  0  0
  -35.8561   76.5043  -47.1138 C   0  0  0  0  0  0  0  0  0  0  0  0
  -34.4714   75.9476  -47.3740 C   0  0  0  0  0  0  0  0  0  0  0  0
  -34.1357   74.6199  -47.0315 C   0  0  0  0  0  0  0  0  0  0  0  0
  -32.8866   74.1361  -47.2094 N   0  0  0  0  0  0  0  0  0  0  0  0
  -31.9803   74.9907  -47.7388 C   0  0  0  0  0  0  0  0  0  0  0  0
  -32.3214   76.3115  -48.0959 C   0  0  0  0  0  0  0  0  0  0  0  0
  -33.5697   76.7980  -47.9135 N   0  0  0  0  0  0  0  0  0  0  0  0
  -41.7551   79.0416  -46.0847 C   0  0  0  0  0  0  0  0  0  0  0  0
  1  2  1  0
  2  3  1  0
  3  4  1  0
  3 25  1  0
  4  5  2  0
  5  6  1  0
  6  7  1  0
  6 25  2  0
  7  8  1  0
  8  9  2  0
  8 10  1  0
 10 11  1  0
 11 12  1  1
 11 18  1  0
 12 13  1  0
 13 14  1  0
 13 17  1  0
 14 15  1  0
 15 16  1  0
 16 17  1  0
 18 19  1  0
 19 20  2  0
 19 24  1  0
 20 21  1  0
 21 22  2  0
 22 23  1  0
 23 24  2  0
M  CHG  1  13   1
M  END
>  <cluster>  (158) 
cluster_3893

>  <glide_score>  (158) 
-7.05991377331967

>  <mmgbsa_dG>  (158) 
-40.9352677038405

$$$$
No_1306
     RDKit          3D

 25 27  0  0  1  0  0  0  0  0999 V2000
  -35.5398   77.2528  -44.4035 C   0  0  0  0  0  0  0  0  0  0  0  0
  -36.9163   77.5673  -44.7598 N   0  0  0  0  0  0  0  0  0  0  0  0
  -37.2928   78.0801  -45.9366 C   0  0  0  0  0  0  0  0  0  0  0  0
  -36.4917   78.3852  -46.8216 O   0  0  0  0  0  0  0  0  0  0  0  0
  -38.6303   78.2030  -46.0079 N   0  0  0  0  0  0  0  0  0  0  0  0
  -39.3638   78.6561  -47.0435 C   0  0  0  0  0  0  0  0  0  0  0  0
  -38.8943   78.9940  -48.1324 O   0  0  0  0  0  0  0  0  0  0  0  0
  -40.8574   78.7258  -46.8051 C   0  0  0  0  0  0  0  0  0  0  0  0
  -41.3378   79.0047  -45.5014 C   0  0  0  0  0  0  0  0  0  0  0  0
  -42.7136   79.1445  -45.2367 C   0  0  0  0  0  0  0  0  0  0  0  0
  -43.6389   79.0062  -46.2820 C   0  0  0  0  0  0  0  0  0  0  0  0
  -43.1837   78.7291  -47.5817 C   0  0  0  0  0  0  0  0  0  0  0  0
  -41.8024   78.6049  -47.8691 C   0  0  0  0  0  0  0  0  0  0  0  0
  -41.3710   78.2951  -49.1945 N   0  0  0  0  0  0  0  0  0  0  0  0
  -41.9491   78.6354  -50.3604 C   0  0  0  0  0  0  0  0  0  0  0  0
  -42.9047   79.4023  -50.4553 O   0  0  0  0  0  0  0  0  0  0  0  0
  -41.3460   77.9890  -51.6149 C   0  0  1  0  0  0  0  0  0  0  0  0
  -41.9441   76.5730  -51.7949 C   0  0  0  0  0  0  0  0  0  0  0  0
  -42.4368   76.5055  -53.1528 N   0  0  0  0  0  0  0  0  0  0  0  0
  -43.4734   75.5295  -53.4427 C   0  0  0  0  0  0  0  0  0  0  0  0
  -43.9201   75.6648  -54.9146 C   0  0  0  0  0  0  0  0  0  0  0  0
  -44.3224   77.0103  -55.1930 O   0  0  0  0  0  0  0  0  0  0  0  0
  -43.3035   77.9805  -54.9155 C   0  0  0  0  0  0  0  0  0  0  0  0
  -42.8944   77.8398  -53.4414 C   0  0  2  0  0  0  0  0  0  0  0  0
  -41.7490   78.7147  -52.9288 C   0  0  0  0  0  0  0  0  0  0  0  0
  1  2  1  0
  2  3  1  0
  3  4  2  0
  3  5  1  0
  5  6  1  0
  6  7  2  0
  6  8  1  0
  8  9  2  0
  8 13  1  0
  9 10  1  0
 10 11  2  0
 11 12  1  0
 12 13  2  0
 13 14  1  0
 14 15  1  0
 15 16  2  0
 17 15  1  1
 17 18  1  0
 17 25  1  0
 18 19  1  0
 19 20  1  0
 19 24  1  0
 20 21  1  0
 21 22  1  0
 22 23  1  0
 24 23  1  6
 24 25  1  0
M  END
>  <cluster>  (159) 
cluster_6582

>  <glide_score>  (159) 
-6.632632267152

>  <mmgbsa_dG>  (159) 
-40.80031918655

$$$$
No_936
     RDKit          3D

 22 25  0  0  1  0  0  0  0  0999 V2000
  -40.0632   78.2035  -49.3632 C   0  0  0  0  0  0  0  0  0  0  0  0
  -40.7000   78.6020  -48.1213 N   0  0  0  0  0  0  0  0  0  0  0  0
  -42.0385   78.9510  -48.0327 C   0  0  0  0  0  0  0  0  0  0  0  0
  -42.3231   79.1981  -46.7199 C   0  0  0  0  0  0  0  0  0  0  0  0
  -43.6523   79.6506  -46.1940 C   0  0  0  0  0  0  0  0  0  0  0  0
  -44.8664   78.7769  -46.3518 C   0  0  0  0  0  0  0  0  0  0  0  0
  -44.2590   79.0052  -44.9803 C   0  0  0  0  0  0  0  0  0  0  0  0
  -41.1531   79.0027  -45.9418 C   0  0  0  0  0  0  0  0  0  0  0  0
  -40.1712   78.6713  -46.8288 C   0  0  0  0  0  0  0  0  0  0  0  0
  -38.9097   78.4038  -46.3973 N   0  0  0  0  0  0  0  0  0  0  0  0
  -37.7176   78.6031  -46.9931 C   0  0  0  0  0  0  0  0  0  0  0  0
  -37.5753   78.9819  -48.1535 O   0  0  0  0  0  0  0  0  0  0  0  0
  -36.6559   78.3603  -46.1949 N   0  0  0  0  0  0  0  0  0  0  0  0
  -35.2536   78.3907  -46.5980 C   0  0  0  0  0  0  0  0  0  0  0  0
  -34.5060   77.9604  -45.3346 C   0  0  0  0  0  0  0  0  0  0  0  0
  -35.4287   78.2303  -44.2408 N   0  0  0  0  0  0  0  0  0  0  0  0
  -35.2199   77.4461  -43.0115 C   0  0  0  0  0  0  0  0  0  0  0  0
  -35.6936   75.9924  -43.0763 C   0  0  0  0  0  0  0  0  0  0  0  0
  -34.7203   74.8300  -42.8062 C   0  0  0  0  0  0  0  0  0  0  0  0
  -35.8638   74.0763  -42.1248 C   0  0  0  0  0  0  0  0  0  0  0  0
  -36.5514   75.4291  -41.9326 C   0  0  0  0  0  0  0  0  0  0  0  0
  -36.7252   78.1957  -44.8078 N   0  0  0  0  0  0  0  0  0  0  0  0
  1  2  1  0
  2  3  1  0
  2  9  1  0
  3  4  2  0
  4  5  1  0
  4  8  1  0
  5  6  1  0
  5  7  1  0
  6  7  1  0
  8  9  2  0
  9 10  1  0
 10 11  1  0
 11 12  2  0
 11 13  1  0
 13 14  1  0
 13 22  1  0
 14 15  1  0
 15 16  1  0
 16 17  1  0
 16 22  1  0
 17 18  1  0
 18 19  1  0
 18 21  1  0
 19 20  1  0
 20 21  1  0
M  END
>  <cluster>  (160) 
cluster_64248

>  <glide_score>  (160) 
-6.59558389818336

>  <mmgbsa_dG>  (160) 
-40.7980574195462

$$$$
No_3543
     RDKit          3D

 20 22  0  0  1  0  0  0  0  0999 V2000
  -40.9762   79.4017  -45.5433 C   0  0  0  0  0  0  0  0  0  0  0  0
  -40.4834   78.8994  -46.8126 N   0  0  0  0  0  0  0  0  0  0  0  0
  -41.2709   78.6699  -47.9349 C   0  0  0  0  0  0  0  0  0  0  0  0
  -40.4360   78.2034  -48.9160 C   0  0  0  0  0  0  0  0  0  0  0  0
  -39.1490   78.1151  -48.4021 N   0  0  0  0  0  0  0  0  0  0  0  0
  -39.2179   78.5627  -47.1501 C   0  0  0  0  0  0  0  0  0  0  0  0
  -38.0360   78.6106  -46.2906 C   0  0  0  0  0  0  0  0  0  0  0  0
  -37.7636   79.4054  -45.2518 N   0  0  0  0  0  0  0  0  0  0  0  0
  -36.5125   79.0391  -44.8081 N   0  0  0  0  0  0  0  0  0  0  0  0
  -36.1635   77.9843  -45.5479 C   0  0  0  0  0  0  0  0  0  0  0  0
  -34.9192   77.1643  -45.4281 C   0  0  0  0  0  0  0  0  0  0  0  0
  -35.3021   76.0272  -44.5517 N   0  0  2  0  0  0  0  0  0  0  0  0
  -35.3411   76.3536  -43.1112 C   0  0  0  0  0  0  0  0  0  0  0  0
  -35.8979   75.1583  -42.3196 C   0  0  0  0  0  0  0  0  0  0  0  0
  -35.1605   73.9200  -42.5936 N   0  0  0  0  0  0  0  0  0  0  0  0
  -35.2706   72.8660  -41.5878 C   0  0  0  0  0  0  0  0  0  0  0  0
  -34.5101   73.6945  -43.7568 C   0  0  0  0  0  0  0  0  0  0  0  0
  -33.9475   72.6254  -44.0097 O   0  0  0  0  0  0  0  0  0  0  0  0
  -34.5279   74.7928  -44.8499 C   0  0  0  0  0  0  0  0  0  0  0  0
  -37.0783   77.6644  -46.4948 O   0  0  0  0  0  0  0  0  0  0  0  0
  1  2  1  0
  2  3  1  0
  2  6  1  0
  3  4  2  0
  4  5  1  0
  5  6  2  0
  6  7  1  0
  7  8  2  0
  7 20  1  0
  8  9  1  0
  9 10  2  0
 10 11  1  0
 10 20  1  0
 12 11  1  6
 12 13  1  0
 12 19  1  0
 13 14  1  0
 14 15  1  0
 15 16  1  0
 15 17  1  0
 17 18  2  0
 17 19  1  0
M  CHG  1  12   1
M  END
>  <cluster>  (161) 
cluster_40475

>  <glide_score>  (161) 
-6.66492995473175

>  <mmgbsa_dG>  (161) 
-40.7962479780181

$$$$
No_631
     RDKit          3D

 23 25  0  0  1  0  0  0  0  0999 V2000
  -45.1234   79.0026  -46.6728 C   0  0  0  0  0  0  0  0  0  0  0  0
  -43.7296   79.4701  -46.2500 C   0  0  1  0  0  0  0  0  0  0  0  0
  -43.2891   78.9069  -44.9108 C   0  0  0  0  0  0  0  0  0  0  0  0
  -41.7762   79.0374  -44.9508 C   0  0  0  0  0  0  0  0  0  0  0  0
  -41.3978   79.0025  -46.3598 N   0  0  0  0  0  0  0  0  0  0  0  0
  -40.1338   79.0026  -46.8363 C   0  0  0  0  0  0  0  0  0  0  0  0
  -39.9023   78.9866  -48.0446 O   0  0  0  0  0  0  0  0  0  0  0  0
  -38.9680   79.1377  -45.8424 C   0  0  0  0  0  0  0  0  0  0  0  0
  -37.3943   78.4379  -46.5086 S   0  0  0  0  0  0  0  0  0  0  0  0
  -37.6574   77.1534  -47.1776 O   0  0  0  0  0  0  0  0  0  0  0  0
  -36.6629   79.5104  -47.2014 O   0  0  0  0  0  0  0  0  0  0  0  0
  -36.4567   78.0635  -45.0408 C   0  0  0  0  0  0  0  0  0  0  0  0
  -35.3937   78.6625  -44.4238 C   0  0  0  0  0  0  0  0  0  0  0  0
  -35.1220   77.8992  -43.2526 C   0  0  0  0  0  0  0  0  0  0  0  0
  -36.0471   76.8937  -43.2274 C   0  0  0  0  0  0  0  0  0  0  0  0
  -36.3399   75.7584  -42.2932 C   0  0  0  0  0  0  0  0  0  0  0  0
  -35.5256   74.5721  -42.5088 N   0  0  0  0  0  0  0  0  0  0  0  0
  -35.5218   73.4368  -41.7118 C   0  0  0  0  0  0  0  0  0  0  0  0
  -34.7074   72.5199  -42.3292 C   0  0  0  0  0  0  0  0  0  0  0  0
  -34.1987   73.0545  -43.5109 N   0  0  0  0  0  0  0  0  0  0  0  0
  -34.7219   74.2769  -43.5422 C   0  0  0  0  0  0  0  0  0  0  0  0
  -36.8652   76.9924  -44.3119 O   0  0  0  0  0  0  0  0  0  0  0  0
  -42.5967   79.0549  -47.1959 C   0  0  0  0  0  0  0  0  0  0  0  0
  2  1  1  6
  2  3  1  0
  2 23  1  0
  3  4  1  0
  4  5  1  0
  5  6  1  0
  5 23  1  0
  6  7  2  0
  6  8  1  0
  8  9  1  0
  9 10  2  0
  9 11  2  0
  9 12  1  0
 12 13  2  0
 12 22  1  0
 13 14  1  0
 14 15  2  0
 15 16  1  0
 15 22  1  0
 16 17  1  0
 17 18  1  0
 17 21  1  0
 18 19  2  0
 19 20  1  0
 20 21  2  0
M  END
>  <cluster>  (162) 
cluster_85047

>  <glide_score>  (162) 
-7.07983801737944

>  <mmgbsa_dG>  (162) 
-40.6692972424353

$$$$
No_1725
     RDKit          3D

 24 26  0  0  1  0  0  0  0  0999 V2000
  -42.6205   79.0287  -49.3841 C   0  0  0  0  0  0  0  0  0  0  0  0
  -41.5746   78.8941  -48.3022 C   0  0  0  0  0  0  0  0  0  0  0  0
  -41.9108   79.0012  -46.9386 C   0  0  0  0  0  0  0  0  0  0  0  0
  -40.8598   78.8992  -46.0103 C   0  0  0  0  0  0  0  0  0  0  0  0
  -39.5592   78.6864  -46.5112 C   0  0  0  0  0  0  0  0  0  0  0  0
  -38.4936   78.6034  -45.6079 N   0  0  0  0  0  0  0  0  0  0  0  0
  -37.1372   78.3193  -46.0560 C   0  0  0  0  0  0  0  0  0  0  0  0
  -36.1003   78.7900  -45.0503 C   0  0  0  0  0  0  0  0  0  0  0  0
  -35.6863   80.1383  -45.0849 C   0  0  0  0  0  0  0  0  0  0  0  0
  -34.8221   80.6533  -44.1853 N   0  0  0  0  0  0  0  0  0  0  0  0
  -34.3293   79.8018  -43.2965 C   0  0  0  0  0  0  0  0  0  0  0  0
  -33.5220   80.3342  -42.3417 N   0  0  0  0  0  0  0  0  0  0  0  0
  -34.6448   78.5243  -43.1554 N   0  0  0  0  0  0  0  0  0  0  0  0
  -35.5225   77.9890  -44.0296 C   0  0  0  0  0  0  0  0  0  0  0  0
  -35.8552   76.5186  -43.7804 C   0  0  2  0  0  0  0  0  0  0  0  0
  -36.5742   76.3127  -42.4447 C   0  0  0  0  0  0  0  0  0  0  0  0
  -36.8339   74.8260  -42.1791 C   0  0  0  0  0  0  0  0  0  0  0  0
  -35.6645   73.9560  -42.3995 N   0  0  0  0  0  0  0  0  0  0  0  0
  -35.6364   72.7075  -41.6489 C   0  0  0  0  0  0  0  0  0  0  0  0
  -34.7221   74.2059  -43.3286 C   0  0  0  0  0  0  0  0  0  0  0  0
  -33.9311   73.3525  -43.7392 O   0  0  0  0  0  0  0  0  0  0  0  0
  -34.5835   75.6491  -43.8056 C   0  0  0  0  0  0  0  0  0  0  0  0
  -39.3089   78.6023  -47.8406 N   0  0  0  0  0  0  0  0  0  0  0  0
  -40.3055   78.6965  -48.7266 N   0  0  0  0  0  0  0  0  0  0  0  0
  1  2  1  0
  2  3  2  0
  2 24  1  0
  3  4  1  0
  4  5  2  0
  5  6  1  0
  5 23  1  0
  6  7  1  0
  7  8  1  0
  8  9  2  0
  8 14  1  0
  9 10  1  0
 10 11  2  0
 11 12  1  0
 11 13  1  0
 13 14  2  0
 15 14  1  1
 15 16  1  0
 15 22  1  0
 16 17  1  0
 17 18  1  0
 18 19  1  0
 18 20  1  0
 20 21  2  0
 20 22  1  0
 23 24  2  0
M  END
>  <cluster>  (163) 
cluster_59761

>  <glide_score>  (163) 
-6.95560119031201

>  <mmgbsa_dG>  (163) 
-40.6278264626962

$$$$
No_4324
     RDKit          3D

 23 26  0  0  1  0  0  0  0  0999 V2000
  -34.3318   72.6026  -44.4077 O   0  0  0  0  0  0  0  0  0  0  0  0
  -34.3222   73.7911  -44.1073 C   0  0  0  0  0  0  0  0  0  0  0  0
  -34.1612   74.8393  -45.2077 C   0  0  0  0  0  0  0  0  0  0  0  0
  -35.1220   75.9299  -44.9712 N   0  0  0  0  0  0  0  0  0  0  0  0
  -34.7876   77.1720  -45.6879 C   0  0  0  0  0  0  0  0  0  0  0  0
  -35.9854   78.0431  -45.7051 C   0  0  0  0  0  0  0  0  0  0  0  0
  -36.1077   79.1119  -44.9226 N   0  0  0  0  0  0  0  0  0  0  0  0
  -37.3664   79.5100  -45.2114 N   0  0  0  0  0  0  0  0  0  0  0  0
  -37.9111   78.6799  -46.1063 C   0  0  0  0  0  0  0  0  0  0  0  0
  -39.2681   78.7617  -46.6034 C   0  0  0  0  0  0  0  0  0  0  0  0
  -39.5411   78.5709  -47.9742 C   0  0  0  0  0  0  0  0  0  0  0  0
  -40.8697   78.6027  -48.4368 C   0  0  0  0  0  0  0  0  0  0  0  0
  -41.9224   78.8109  -47.5241 C   0  0  0  0  0  0  0  0  0  0  0  0
  -41.6459   79.0027  -46.1562 C   0  0  0  0  0  0  0  0  0  0  0  0
  -40.3196   79.0027  -45.7013 C   0  0  0  0  0  0  0  0  0  0  0  0
  -42.7824   79.2037  -45.1773 C   0  0  0  0  0  0  0  0  0  0  0  0
  -43.9609   79.6761  -45.8044 O   0  0  0  0  0  0  0  0  0  0  0  0
  -44.3692   78.8207  -46.8557 C   0  0  0  0  0  0  0  0  0  0  0  0
  -43.3517   78.8784  -48.0077 C   0  0  0  0  0  0  0  0  0  0  0  0
  -37.0651   77.7242  -46.4678 N   0  0  0  0  0  0  0  0  0  0  0  0
  -34.4671   74.2472  -42.6805 C   0  0  0  0  0  0  0  0  0  0  0  0
  -35.8153   74.0678  -42.0077 C   0  0  0  0  0  0  0  0  0  0  0  0
  -34.6556   73.1993  -41.6077 C   0  0  0  0  0  0  0  0  0  0  0  0
  1  2  2  0
  2  3  1  0
  2 21  1  0
  3  4  1  0
  4  5  1  0
  5  6  1  0
  6  7  2  0
  6 20  1  0
  7  8  1  0
  8  9  1  0
  9 10  1  0
  9 20  2  0
 10 11  2  0
 10 15  1  0
 11 12  1  0
 12 13  2  0
 13 14  1  0
 13 19  1  0
 14 15  2  0
 14 16  1  0
 16 17  1  0
 17 18  1  0
 18 19  1  0
 21 22  1  0
 21 23  1  0
 22 23  1  0
M  CHG  1   4   1
M  END
>  <cluster>  (164) 
cluster_88740

>  <glide_score>  (164) 
-7.26335933495611

>  <mmgbsa_dG>  (164) 
-40.5234615313311

$$$$
No_3121
     RDKit          3D

 23 25  0  0  1  0  0  0  0  0999 V2000
  -44.3736   79.1469  -46.5095 C   0  0  0  0  0  0  0  0  0  0  0  0
  -42.9253   78.9550  -46.7893 C   0  0  0  0  0  0  0  0  0  0  0  0
  -42.3185   78.7436  -47.9975 C   0  0  0  0  0  0  0  0  0  0  0  0
  -40.9038   78.6044  -47.8928 C   0  0  0  0  0  0  0  0  0  0  0  0
  -40.4405   78.7068  -46.6019 C   0  0  0  0  0  0  0  0  0  0  0  0
  -39.1497   78.6029  -46.0730 N   0  0  0  0  0  0  0  0  0  0  0  0
  -37.9742   78.2012  -46.6769 C   0  0  0  0  0  0  0  0  0  0  0  0
  -37.0053   77.8038  -45.8478 N   0  0  0  0  0  0  0  0  0  0  0  0
  -35.8523   77.3880  -46.4153 C   0  0  0  0  0  0  0  0  0  0  0  0
  -34.7343   76.9741  -45.4798 C   0  0  0  0  0  0  0  0  0  0  0  0
  -35.1222   75.8028  -44.6530 N   0  0  2  0  0  0  0  0  0  0  0  0
  -35.2784   76.1394  -43.2200 C   0  0  0  0  0  0  0  0  0  0  0  0
  -35.8171   74.9322  -42.4457 C   0  0  0  0  0  0  0  0  0  0  0  0
  -35.0123   73.7298  -42.6739 N   0  0  0  0  0  0  0  0  0  0  0  0
  -35.0394   72.7282  -41.6115 C   0  0  0  0  0  0  0  0  0  0  0  0
  -34.3222   73.5024  -43.8130 C   0  0  0  0  0  0  0  0  0  0  0  0
  -33.7102   72.4531  -44.0072 O   0  0  0  0  0  0  0  0  0  0  0  0
  -34.3221   74.5721  -44.9288 C   0  0  0  0  0  0  0  0  0  0  0  0
  -35.6800   77.3490  -47.8111 C   0  0  0  0  0  0  0  0  0  0  0  0
  -36.7658   77.8040  -48.5803 C   0  0  0  0  0  0  0  0  0  0  0  0
  -36.7127   77.8394  -50.0912 C   0  0  0  0  0  0  0  0  0  0  0  0
  -37.9055   78.2335  -48.0070 N   0  0  0  0  0  0  0  0  0  0  0  0
  -41.7573   79.0030  -45.5008 S   0  0  0  0  0  0  0  0  0  0  0  0
  1  2  1  0
  2  3  2  0
  2 23  1  0
  3  4  1  0
  4  5  2  0
  5  6  1  0
  5 23  1  0
  6  7  1  0
  7  8  2  0
  7 22  1  0
  8  9  1  0
  9 10  1  0
  9 19  2  0
 11 10  1  6
 11 12  1  0
 11 18  1  0
 12 13  1  0
 13 14  1  0
 14 15  1  0
 14 16  1  0
 16 17  2  0
 16 18  1  0
 19 20  1  0
 20 21  1  0
 20 22  2  0
M  CHG  1  11   1
M  END
>  <cluster>  (165) 
cluster_103365

>  <glide_score>  (165) 
-7.2454564489238

>  <mmgbsa_dG>  (165) 
-40.4976413083714

$$$$
No_1164
     RDKit          3D

 20 22  0  0  1  0  0  0  0  0999 V2000
  -37.0113   78.8369  -47.7666 O   0  0  0  0  0  0  0  0  0  0  0  0
  -37.8653   78.6363  -46.9044 C   0  0  0  0  0  0  0  0  0  0  0  0
  -37.5574   78.4570  -45.6084 N   0  0  0  0  0  0  0  0  0  0  0  0
  -36.2028   78.5115  -45.0632 C   0  0  0  0  0  0  0  0  0  0  0  0
  -35.6164   79.9372  -45.1203 C   0  0  0  0  0  0  0  0  0  0  0  0
  -34.3010   80.1118  -44.5021 N   0  0  0  0  0  0  0  0  0  0  0  0
  -33.2535   79.3579  -45.2041 C   0  0  0  0  0  0  0  0  0  0  0  0
  -31.8491   79.6041  -44.6150 C   0  0  0  0  0  0  0  0  0  0  0  0
  -31.5473   80.9992  -44.5846 O   0  0  0  0  0  0  0  0  0  0  0  0
  -32.5272   81.7421  -43.8620 C   0  0  0  0  0  0  0  0  0  0  0  0
  -33.9149   81.5188  -44.4920 C   0  0  0  0  0  0  0  0  0  0  0  0
  -39.3267   78.6034  -47.2763 C   0  0  0  0  0  0  0  0  0  0  0  0
  -39.6832   78.5776  -48.6741 C   0  0  0  0  0  0  0  0  0  0  0  0
  -41.0290   78.5849  -49.1361 C   0  0  0  0  0  0  0  0  0  0  0  0
  -41.9623   78.6009  -48.1050 C   0  0  0  0  0  0  0  0  0  0  0  0
  -41.6547   78.6095  -46.7254 C   0  0  0  0  0  0  0  0  0  0  0  0
  -40.3373   78.6535  -46.2649 C   0  0  0  0  0  0  0  0  0  0  0  0
  -42.9972   78.6442  -46.2856 N   0  0  0  0  0  0  0  0  0  0  0  0
  -43.3127   79.8030  -45.4686 C   0  0  0  0  0  0  0  0  0  0  0  0
  -43.3985   78.6403  -47.7433 C   0  0  0  0  0  0  0  0  0  0  0  0
  1  2  2  0
  2  3  1  0
  2 12  1  0
  3  4  1  0
  4  5  1  0
  5  6  1  0
  6  7  1  0
  6 11  1  0
  7  8  1  0
  8  9  1  0
  9 10  1  0
 10 11  1  0
 12 13  2  0
 12 17  1  0
 13 14  1  0
 14 15  2  0
 15 16  1  0
 15 20  1  0
 16 17  2  0
 16 18  1  0
 18 19  1  0
 18 20  1  0
M  END
>  <cluster>  (166) 
cluster_6440

>  <glide_score>  (166) 
-6.52103592923839

>  <mmgbsa_dG>  (166) 
-40.4961031803614

$$$$
No_112
     RDKit          3D

 21 23  0  0  1  0  0  0  0  0999 V2000
  -33.7096   74.8232  -47.7228 C   0  0  0  0  0  0  0  0  0  0  0  0
  -35.1012   74.7300  -48.3895 C   0  0  2  0  0  0  0  0  0  0  0  0
  -36.1153   75.3640  -47.5484 N   0  0  0  0  0  0  0  0  0  0  0  0
  -36.0525   76.8350  -47.5697 C   0  0  0  0  0  0  0  0  0  0  0  0
  -37.1208   77.4735  -46.6737 C   0  0  0  0  0  0  0  0  0  0  0  0
  -36.8681   77.6271  -45.4787 O   0  0  0  0  0  0  0  0  0  0  0  0
  -38.2988   77.8516  -47.2119 N   0  0  0  0  0  0  0  0  0  0  0  0
  -38.6945   77.7050  -48.6110 C   0  0  0  0  0  0  0  0  0  0  0  0
  -40.1286   78.2237  -48.6912 C   0  0  0  0  0  0  0  0  0  0  0  0
  -40.4438   78.6899  -47.3582 N   0  0  0  0  0  0  0  0  0  0  0  0
  -41.7657   78.8927  -46.9408 C   0  0  0  0  0  0  0  0  0  0  0  0
  -42.8941   78.9943  -47.7157 C   0  0  0  0  0  0  0  0  0  0  0  0
  -44.0762   79.2455  -46.9579 C   0  0  0  0  0  0  0  0  0  0  0  0
  -43.8419   79.3334  -45.6140 C   0  0  0  0  0  0  0  0  0  0  0  0
  -42.1640   79.0797  -45.2465 S   0  0  0  0  0  0  0  0  0  0  0  0
  -39.3595   78.4648  -46.4201 C   0  0  0  0  0  0  0  0  0  0  0  0
  -35.4318   73.3126  -48.5891 N   0  0  0  0  0  0  0  0  0  0  0  0
  -34.6190   72.6963  -49.6362 C   0  0  0  0  0  0  0  0  0  0  0  0
  -35.3216   71.3745  -49.9235 C   0  0  0  0  0  0  0  0  0  0  0  0
  -36.7883   71.6609  -49.6287 C   0  0  0  0  0  0  0  0  0  0  0  0
  -36.8032   73.0775  -49.0436 C   0  0  0  0  0  0  0  0  0  0  0  0
  2  1  1  1
  2  3  1  0
  2 17  1  0
  3  4  1  0
  4  5  1  0
  5  6  2  0
  5  7  1  0
  7  8  1  0
  7 16  1  0
  8  9  1  0
  9 10  1  0
 10 11  1  0
 10 16  1  0
 11 12  2  0
 11 15  1  0
 12 13  1  0
 13 14  2  0
 14 15  1  0
 17 18  1  0
 17 21  1  0
 18 19  1  0
 19 20  1  0
 20 21  1  0
M  END
>  <cluster>  (167) 
cluster_42320

>  <glide_score>  (167) 
-7.14950449357757

>  <mmgbsa_dG>  (167) 
-40.4780875936631

$$$$
No_4738
     RDKit          3D

 25 28  0  0  1  0  0  0  0  0999 V2000
  -43.3517   78.6124  -46.8874 C   0  0  0  0  0  0  0  0  0  0  0  0
  -41.9628   78.6810  -47.2993 N   0  0  0  0  0  0  0  0  0  0  0  0
  -40.9095   78.9771  -46.5245 C   0  0  0  0  0  0  0  0  0  0  0  0
  -39.7530   79.0027  -47.1714 N   0  0  0  0  0  0  0  0  0  0  0  0
  -40.0823   78.6724  -48.4855 C   0  0  0  0  0  0  0  0  0  0  0  0
  -39.0433   78.6618  -49.5748 C   0  0  0  0  0  0  0  0  0  0  0  0
  -38.2483   77.4807  -49.9215 N   0  0  0  0  0  0  0  0  0  0  0  0
  -38.9980   76.3238  -50.4022 C   0  0  0  0  0  0  0  0  0  0  0  0
  -38.0607   75.2474  -50.9858 C   0  0  0  0  0  0  0  0  0  0  0  0
  -36.9962   74.9514  -50.0805 O   0  0  0  0  0  0  0  0  0  0  0  0
  -36.2284   76.1058  -49.7399 C   0  0  2  0  0  0  0  0  0  0  0  0
  -35.0305   75.7152  -48.8591 C   0  0  0  0  0  0  0  0  0  0  0  0
  -35.4680   75.2363  -47.4640 C   0  0  0  0  0  0  0  0  0  0  0  0
  -36.3799   76.2025  -46.8036 N   0  0  1  0  0  0  0  0  0  0  0  0
  -35.7101   77.3969  -46.2098 C   0  0  0  0  0  0  0  0  0  0  0  0
  -35.6479   77.4011  -44.6744 C   0  0  0  0  0  0  0  0  0  0  0  0
  -35.3682   78.4523  -44.0990 O   0  0  0  0  0  0  0  0  0  0  0  0
  -35.9217   76.2664  -44.0085 N   0  0  0  0  0  0  0  0  0  0  0  0
  -35.9514   76.1175  -42.5984 C   0  0  0  0  0  0  0  0  0  0  0  0
  -37.1216   75.3894  -41.9773 C   0  0  0  0  0  0  0  0  0  0  0  0
  -35.7913   74.7035  -42.0800 C   0  0  0  0  0  0  0  0  0  0  0  0
  -37.5567   76.5185  -47.6476 C   0  0  0  0  0  0  0  0  0  0  0  0
  -37.1505   77.1136  -49.0200 C   0  0  2  0  0  0  0  0  0  0  0  0
  -41.4460   78.4906  -48.5795 C   0  0  0  0  0  0  0  0  0  0  0  0
  -42.3032   78.1856  -49.7624 C   0  0  0  0  0  0  0  0  0  0  0  0
  1  2  1  0
  2  3  1  0
  2 24  1  0
  3  4  2  0
  4  5  1  0
  5  6  1  0
  5 24  2  0
  6  7  1  0
  7  8  1  0
  7 23  1  0
  8  9  1  0
  9 10  1  0
 10 11  1  0
 11 12  1  1
 11 23  1  0
 12 13  1  0
 13 14  1  0
 14 15  1  6
 14 22  1  0
 15 16  1  0
 16 17  2  0
 16 18  1  0
 18 19  1  0
 19 20  1  0
 19 21  1  0
 20 21  1  0
 23 22  1  1
 24 25  1  0
M  CHG  1  14   1
M  END
>  <cluster>  (168) 
cluster_99706

>  <glide_score>  (168) 
-6.78361125775574

>  <mmgbsa_dG>  (168) 
-40.4001706998315

$$$$
No_2899
     RDKit          3D

 22 24  0  0  1  0  0  0  0  0999 V2000
  -34.7222   72.7472  -42.3838 C   0  0  0  0  0  0  0  0  0  0  0  0
  -34.7989   74.1953  -42.8843 C   0  0  0  0  0  0  0  0  0  0  0  0
  -35.6700   74.9669  -42.0077 N   0  0  0  0  0  0  0  0  0  0  0  0
  -36.2539   76.2163  -42.4077 C   0  0  0  0  0  0  0  0  0  0  0  0
  -35.6874   76.9867  -43.5964 C   0  0  0  0  0  0  0  0  0  0  0  0
  -36.5744   77.0026  -44.7576 N   0  0  0  0  0  0  0  0  0  0  0  0
  -37.0316   78.0994  -45.3844 C   0  0  0  0  0  0  0  0  0  0  0  0
  -36.8404   79.2422  -44.9686 O   0  0  0  0  0  0  0  0  0  0  0  0
  -37.7906   77.8688  -46.7019 C   0  0  2  0  0  0  0  0  0  0  0  0
  -36.9421   78.3593  -47.8756 C   0  0  0  0  0  0  0  0  0  0  0  0
  -37.6860   78.0642  -49.1690 C   0  0  0  0  0  0  0  0  0  0  0  0
  -39.0264   78.8038  -49.2053 C   0  0  0  0  0  0  0  0  0  0  0  0
  -39.8807   78.6026  -48.0082 N   0  0  0  0  0  0  0  0  0  0  0  0
  -41.2356   78.6026  -48.1818 C   0  0  0  0  0  0  0  0  0  0  0  0
  -41.7335   78.4687  -49.3011 O   0  0  0  0  0  0  0  0  0  0  0  0
  -42.1947   78.7989  -47.0548 C   0  0  0  0  0  0  0  0  0  0  0  0
  -42.0932   79.1028  -45.7174 C   0  0  0  0  0  0  0  0  0  0  0  0
  -43.4167   79.1971  -45.2077 C   0  0  0  0  0  0  0  0  0  0  0  0
  -44.2463   79.0026  -46.2693 C   0  0  0  0  0  0  0  0  0  0  0  0
  -43.5221   78.7383  -47.3848 O   0  0  0  0  0  0  0  0  0  0  0  0
  -39.1974   78.5264  -46.6943 C   0  0  0  0  0  0  0  0  0  0  0  0
  -36.9673   75.0026  -42.4077 N   0  0  0  0  0  0  0  0  0  0  0  0
  1  2  1  0
  2  3  1  0
  3  4  1  0
  3 22  1  0
  4  5  1  0
  4 22  2  0
  5  6  1  0
  6  7  1  0
  7  8  2  0
  9  7  1  1
  9 10  1  0
  9 21  1  0
 10 11  1  0
 11 12  1  0
 12 13  1  0
 13 14  1  0
 13 21  1  0
 14 15  2  0
 14 16  1  0
 16 17  2  0
 16 20  1  0
 17 18  1  0
 18 19  2  0
 19 20  1  0
M  CHG  1  22   1
M  END
>  <cluster>  (169) 
cluster_18727

>  <glide_score>  (169) 
-7.32075767964199

>  <mmgbsa_dG>  (169) 
-40.396357825899

$$$$
No_4331
     RDKit          3D

 19 21  0  0  1  0  0  0  0  0999 V2000
  -41.0130   78.1448  -50.0168 C   0  0  0  0  0  0  0  0  0  0  0  0
  -40.8022   78.4981  -48.5646 C   0  0  0  0  0  0  0  0  0  0  0  0
  -39.6921   78.7022  -47.9571 N   0  0  0  0  0  0  0  0  0  0  0  0
  -39.9644   79.0112  -46.6030 C   0  0  0  0  0  0  0  0  0  0  0  0
  -38.9308   79.4976  -45.6065 C   0  0  0  0  0  0  0  0  0  0  0  0
  -37.5703   79.1036  -45.9556 N   0  0  0  0  0  0  0  0  0  0  0  0
  -37.3353   77.6849  -45.7391 C   0  0  0  0  0  0  0  0  0  0  0  0
  -35.8498   77.6312  -45.4108 C   0  0  0  0  0  0  0  0  0  0  0  0
  -35.7288   78.7759  -44.5285 N   0  0  0  0  0  0  0  0  0  0  0  0
  -34.3272   79.1786  -44.2878 C   0  0  0  0  0  0  0  0  0  0  0  0
  -34.1858   80.3814  -43.3460 C   0  0  0  0  0  0  0  0  0  0  0  0
  -33.5222   80.2027  -42.2061 N   0  0  0  0  0  0  0  0  0  0  0  0
  -34.7139   81.4619  -43.6076 O   0  0  0  0  0  0  0  0  0  0  0  0
  -36.5659   79.7933  -45.1588 C   0  0  0  0  0  0  0  0  0  0  0  0
  -41.2866   78.9707  -46.4297 C   0  0  0  0  0  0  0  0  0  0  0  0
  -42.3084   79.2082  -45.4495 C   0  0  0  0  0  0  0  0  0  0  0  0
  -43.4770   78.9976  -46.1022 C   0  0  0  0  0  0  0  0  0  0  0  0
  -43.2152   78.6393  -47.4998 C   0  0  0  0  0  0  0  0  0  0  0  0
  -41.8901   78.6477  -47.6231 C   0  0  0  0  0  0  0  0  0  0  0  0
  1  2  1  0
  2  3  2  0
  2 19  1  0
  3  4  1  0
  4  5  1  0
  4 15  2  0
  5  6  1  0
  6  7  1  0
  6 14  1  0
  7  8  1  0
  8  9  1  0
  9 10  1  0
  9 14  1  0
 10 11  1  0
 11 12  1  0
 11 13  2  0
 15 16  1  0
 15 19  1  0
 16 17  2  0
 17 18  1  0
 18 19  2  0
M  END
>  <cluster>  (170) 
cluster_25435

>  <glide_score>  (170) 
-6.75664006597564

>  <mmgbsa_dG>  (170) 
-40.3461615296328

$$$$
No_4139
     RDKit          3D

 23 25  0  0  1  0  0  0  0  0999 V2000
  -39.0020   77.9523  -50.4797 C   0  0  0  0  0  0  0  0  0  0  0  0
  -39.1949   78.2027  -49.0002 C   0  0  0  0  0  0  0  0  0  0  0  0
  -38.0999   78.2422  -48.2441 N   0  0  0  0  0  0  0  0  0  0  0  0
  -38.2660   78.4562  -46.9245 C   0  0  0  0  0  0  0  0  0  0  0  0
  -36.9959   78.4996  -46.0802 C   0  0  1  0  0  0  0  0  0  0  0  0
  -36.5456   79.9476  -45.8345 C   0  0  0  0  0  0  0  0  0  0  0  0
  -37.1222   77.7815  -44.8077 N   0  0  0  0  0  0  0  0  0  0  0  0
  -36.1341   77.0777  -44.2211 C   0  0  0  0  0  0  0  0  0  0  0  0
  -35.0212   76.9556  -44.7263 O   0  0  0  0  0  0  0  0  0  0  0  0
  -36.4147   76.4319  -42.8540 C   0  0  0  0  0  0  0  0  0  0  0  0
  -35.9887   75.0050  -42.8077 N   0  0  2  0  0  0  0  0  0  0  0  0
  -36.8777   74.1602  -41.9965 C   0  0  0  0  0  0  0  0  0  0  0  0
  -34.5322   74.7789  -42.6081 C   0  0  0  0  0  0  0  0  0  0  0  0
  -34.0711   73.6445  -41.7060 C   0  0  0  0  0  0  0  0  0  0  0  0
  -34.0640   73.4632  -43.2052 C   0  0  0  0  0  0  0  0  0  0  0  0
  -39.5468   78.6788  -46.3805 C   0  0  0  0  0  0  0  0  0  0  0  0
  -40.6479   78.6027  -47.2656 C   0  0  0  0  0  0  0  0  0  0  0  0
  -41.9663   78.7768  -46.7692 N   0  0  0  0  0  0  0  0  0  0  0  0
  -42.3726   79.3057  -45.5571 C   0  0  0  0  0  0  0  0  0  0  0  0
  -43.7340   79.2206  -45.5980 C   0  0  0  0  0  0  0  0  0  0  0  0
  -44.1050   78.6468  -46.8077 N   0  0  0  0  0  0  0  0  0  0  0  0
  -43.0426   78.3983  -47.5059 N   0  0  0  0  0  0  0  0  0  0  0  0
  -40.4471   78.3677  -48.5822 N   0  0  0  0  0  0  0  0  0  0  0  0
  1  2  1  0
  2  3  2  0
  2 23  1  0
  3  4  1  0
  4  5  1  0
  4 16  2  0
  5  6  1  1
  5  7  1  0
  7  8  1  0
  8  9  2  0
  8 10  1  0
 10 11  1  0
 11 12  1  1
 11 13  1  0
 13 14  1  0
 13 15  1  0
 14 15  1  0
 16 17  1  0
 17 18  1  0
 17 23  2  0
 18 19  1  0
 18 22  1  0
 19 20  2  0
 20 21  1  0
 21 22  2  0
M  CHG  1  11   1
M  END
>  <cluster>  (171) 
cluster_109659

>  <glide_score>  (171) 
-6.70305001581414

>  <mmgbsa_dG>  (171) 
-40.3160852649089

$$$$
No_1934
     RDKit          3D

 22 24  0  0  1  0  0  0  0  0999 V2000
  -32.3136   81.7643  -42.0560 C   0  0  0  0  0  0  0  0  0  0  0  0
  -32.7801   80.6027  -42.7966 N   0  0  0  0  0  0  0  0  0  0  0  0
  -33.9225   80.5562  -43.4930 C   0  0  0  0  0  0  0  0  0  0  0  0
  -34.6658   81.5328  -43.6075 O   0  0  0  0  0  0  0  0  0  0  0  0
  -34.3057   79.2035  -44.1190 C   0  0  1  0  0  0  0  0  0  0  0  0
  -34.8305   78.2435  -43.0258 C   0  0  0  0  0  0  0  0  0  0  0  0
  -35.5666   77.0075  -43.5585 C   0  0  0  0  0  0  0  0  0  0  0  0
  -35.7764   76.0618  -42.8075 O   0  0  0  0  0  0  0  0  0  0  0  0
  -35.9859   76.9869  -44.8298 N   0  0  0  0  0  0  0  0  0  0  0  0
  -35.7993   78.0321  -45.8363 C   0  0  1  0  0  0  0  0  0  0  0  0
  -37.0851   78.1641  -46.5931 C   0  0  0  0  0  0  0  0  0  0  0  0
  -38.3060   78.2714  -46.0737 N   0  0  0  0  0  0  0  0  0  0  0  0
  -39.0445   78.4196  -47.2034 C   0  0  0  0  0  0  0  0  0  0  0  0
  -40.5026   78.6099  -47.1501 C   0  0  0  0  0  0  0  0  0  0  0  0
  -41.4911   78.6024  -48.1776 C   0  0  0  0  0  0  0  0  0  0  0  0
  -42.7046   78.8377  -47.5924 C   0  0  0  0  0  0  0  0  0  0  0  0
  -42.4981   79.0031  -46.2358 N   0  0  0  0  0  0  0  0  0  0  0  0
  -43.5152   79.2730  -45.2457 C   0  0  0  0  0  0  0  0  0  0  0  0
  -41.1484   78.8823  -45.9752 C   0  0  0  0  0  0  0  0  0  0  0  0
  -38.3885   78.4327  -48.3547 N   0  0  0  0  0  0  0  0  0  0  0  0
  -37.0534   78.2722  -47.9464 O   0  0  0  0  0  0  0  0  0  0  0  0
  -35.3631   79.3781  -45.2289 C   0  0  0  0  0  0  0  0  0  0  0  0
  1  2  1  0
  2  3  1  0
  3  4  2  0
  5  3  1  1
  5  6  1  0
  5 22  1  0
  6  7  1  0
  7  8  2  0
  7  9  1  0
  9 10  1  0
 10 11  1  1
 10 22  1  0
 11 12  2  0
 11 21  1  0
 12 13  1  0
 13 14  1  0
 13 20  2  0
 14 15  1  0
 14 19  2  0
 15 16  2  0
 16 17  1  0
 17 18  1  0
 17 19  1  0
 20 21  1  0
M  END
>  <cluster>  (172) 
cluster_17762

>  <glide_score>  (172) 
-6.56099723538207

>  <mmgbsa_dG>  (172) 
-40.2930243940427

$$$$
No_4239
     RDKit          3D

 23 26  0  0  1  0  0  0  0  0999 V2000
  -34.7221   71.5554  -43.1396 C   0  0  0  0  0  0  0  0  0  0  0  0
  -34.7221   72.1976  -44.4051 O   0  0  0  0  0  0  0  0  0  0  0  0
  -34.1977   73.5053  -44.3290 C   0  0  0  0  0  0  0  0  0  0  0  0
  -34.0424   74.0787  -45.7480 C   0  0  0  0  0  0  0  0  0  0  0  0
  -33.9904   75.5355  -45.8054 N   0  0  0  0  0  0  0  0  0  0  0  0
  -33.3780   76.0433  -47.0095 C   0  0  0  0  0  0  0  0  0  0  0  0
  -33.7274   77.5191  -46.9774 C   0  0  0  0  0  0  0  0  0  0  0  0
  -35.0652   77.5443  -46.3411 N   0  0  1  0  0  0  0  0  0  0  0  0
  -36.1348   78.1189  -47.2071 C   0  0  1  0  0  0  0  0  0  0  0  0
  -36.4296   77.3621  -48.5117 C   0  0  0  0  0  0  0  0  0  0  0  0
  -37.8087   77.8877  -48.9172 C   0  0  0  0  0  0  0  0  0  0  0  0
  -38.4129   78.4202  -47.6998 N   0  0  0  0  0  0  0  0  0  0  0  0
  -39.8066   78.6034  -47.5848 C   0  0  0  0  0  0  0  0  0  0  0  0
  -40.6295   78.5928  -48.7411 C   0  0  0  0  0  0  0  0  0  0  0  0
  -42.0270   78.7635  -48.6519 C   0  0  0  0  0  0  0  0  0  0  0  0
  -42.6424   78.9696  -47.4017 C   0  0  0  0  0  0  0  0  0  0  0  0
  -43.9749   79.1618  -47.0786 N   0  0  0  0  0  0  0  0  0  0  0  0
  -43.9154   79.3279  -45.7611 C   0  0  0  0  0  0  0  0  0  0  0  0
  -42.6945   79.2325  -45.2071 N   0  0  0  0  0  0  0  0  0  0  0  0
  -41.8086   79.0026  -46.2459 C   0  0  0  0  0  0  0  0  0  0  0  0
  -40.4150   78.8233  -46.3263 C   0  0  0  0  0  0  0  0  0  0  0  0
  -37.5191   78.2652  -46.5601 C   0  0  0  0  0  0  0  0  0  0  0  0
  -35.3022   76.1845  -45.7775 C   0  0  0  0  0  0  0  0  0  0  0  0
  1  2  1  0
  2  3  1  0
  3  4  1  0
  4  5  1  0
  5  6  1  0
  5 23  1  0
  6  7  1  0
  8  7  1  6
  8  9  1  0
  8 23  1  0
  9 10  1  6
  9 22  1  0
 10 11  1  0
 11 12  1  0
 12 13  1  0
 12 22  1  0
 13 14  2  0
 13 21  1  0
 14 15  1  0
 15 16  2  0
 16 17  1  0
 16 20  1  0
 17 18  2  0
 18 19  1  0
 19 20  1  0
 20 21  2  0
M  CHG  1   8   1
M  END
>  <cluster>  (173) 
cluster_9515

>  <glide_score>  (173) 
-6.97501816848896

>  <mmgbsa_dG>  (173) 
-40.2537258506272

$$$$
No_2851
     RDKit          3D

 20 22  0  0  1  0  0  0  0  0999 V2000
  -33.5222   73.2406  -42.4356 C   0  0  0  0  0  0  0  0  0  0  0  0
  -34.8356   73.8444  -42.9159 C   0  0  1  0  0  0  0  0  0  0  0  0
  -35.9302   73.8276  -41.8417 C   0  0  0  0  0  0  0  0  0  0  0  0
  -36.6548   75.1658  -41.9839 C   0  0  0  0  0  0  0  0  0  0  0  0
  -36.1171   75.8026  -43.2056 N   0  0  1  0  0  0  0  0  0  0  0  0
  -36.3195   77.2573  -43.2477 C   0  0  0  0  0  0  0  0  0  0  0  0
  -36.2029   77.8420  -44.6645 C   0  0  0  0  0  0  0  0  0  0  0  0
  -37.5225   78.1248  -45.2085 N   0  0  0  0  0  0  0  0  0  0  0  0
  -37.7505   78.6946  -46.3999 C   0  0  0  0  0  0  0  0  0  0  0  0
  -36.8550   79.0868  -47.1440 O   0  0  0  0  0  0  0  0  0  0  0  0
  -39.1904   78.7499  -46.8248 C   0  0  0  0  0  0  0  0  0  0  0  0
  -40.2179   79.0026  -45.8793 C   0  0  0  0  0  0  0  0  0  0  0  0
  -41.5486   79.0027  -46.3265 C   0  0  0  0  0  0  0  0  0  0  0  0
  -41.8790   78.8058  -47.6547 C   0  0  0  0  0  0  0  0  0  0  0  0
  -40.8769   78.6024  -48.6172 C   0  0  0  0  0  0  0  0  0  0  0  0
  -39.5287   78.5784  -48.1933 C   0  0  0  0  0  0  0  0  0  0  0  0
  -43.2243   78.8630  -47.8811 O   0  0  0  0  0  0  0  0  0  0  0  0
  -43.8679   79.2178  -46.6440 C   0  0  0  0  0  0  0  0  0  0  0  0
  -42.7876   79.2399  -45.5360 C   0  0  0  0  0  0  0  0  0  0  0  0
  -34.7368   75.3091  -43.3446 C   0  0  0  0  0  0  0  0  0  0  0  0
  2  1  1  1
  2  3  1  0
  2 20  1  0
  3  4  1  0
  4  5  1  0
  5  6  1  1
  5 20  1  0
  6  7  1  0
  7  8  1  0
  8  9  1  0
  9 10  2  0
  9 11  1  0
 11 12  2  0
 11 16  1  0
 12 13  1  0
 13 14  2  0
 13 19  1  0
 14 15  1  0
 14 17  1  0
 15 16  2  0
 17 18  1  0
 18 19  1  0
M  CHG  1   5   1
M  END
>  <cluster>  (174) 
cluster_23955

>  <glide_score>  (174) 
-6.91291289985957

>  <mmgbsa_dG>  (174) 
-40.2281719833481

$$$$
No_714
     RDKit          3D

 24 26  0  0  1  0  0  0  0  0999 V2000
  -43.7853   79.2731  -44.4128 C   0  0  0  0  0  0  0  0  0  0  0  0
  -43.2282   79.1801  -45.7845 C   0  0  0  0  0  0  0  0  0  0  0  0
  -43.9236   79.1942  -46.9607 C   0  0  0  0  0  0  0  0  0  0  0  0
  -43.0912   78.9970  -48.0964 C   0  0  0  0  0  0  0  0  0  0  0  0
  -41.7684   78.8158  -47.7846 C   0  0  0  0  0  0  0  0  0  0  0  0
  -40.6957   78.4824  -48.7809 C   0  0  0  0  0  0  0  0  0  0  0  0
  -39.3701   79.0562  -48.5673 N   0  0  0  0  0  0  0  0  0  0  0  0
  -38.5674   78.9411  -49.7777 C   0  0  0  0  0  0  0  0  0  0  0  0
  -37.1148   78.9171  -49.2957 C   0  0  0  0  0  0  0  0  0  0  0  0
  -37.2157   79.0009  -47.8484 N   0  0  0  0  0  0  0  0  0  0  0  0
  -36.0800   78.3578  -47.1885 C   0  0  0  0  0  0  0  0  0  0  0  0
  -35.9557   78.5608  -45.6728 C   0  0  0  0  0  0  0  0  0  0  0  0
  -36.7679   79.2173  -45.0222 O   0  0  0  0  0  0  0  0  0  0  0  0
  -34.7299   77.9497  -44.9895 C   0  0  0  0  0  0  0  0  0  0  0  0
  -34.7224   76.4883  -44.9944 N   0  0  0  0  0  0  0  0  0  0  0  0
  -33.9658   75.7751  -46.0186 C   0  0  0  0  0  0  0  0  0  0  0  0
  -35.1509   75.7996  -43.8394 C   0  0  0  0  0  0  0  0  0  0  0  0
  -36.2580   76.2652  -43.0892 C   0  0  0  0  0  0  0  0  0  0  0  0
  -36.7161   75.5217  -41.9854 C   0  0  0  0  0  0  0  0  0  0  0  0
  -36.0716   74.3998  -41.6077 N   0  0  0  0  0  0  0  0  0  0  0  0
  -35.0121   73.9092  -42.2793 C   0  0  0  0  0  0  0  0  0  0  0  0
  -34.5419   74.5861  -43.4223 C   0  0  0  0  0  0  0  0  0  0  0  0
  -38.5234   78.4300  -47.5619 C   0  0  0  0  0  0  0  0  0  0  0  0
  -41.5170   79.0026  -46.0618 S   0  0  0  0  0  0  0  0  0  0  0  0
  1  2  1  0
  2  3  2  0
  2 24  1  0
  3  4  1  0
  4  5  2  0
  5  6  1  0
  5 24  1  0
  6  7  1  0
  7  8  1  0
  7 23  1  0
  8  9  1  0
  9 10  1  0
 10 11  1  0
 10 23  1  0
 11 12  1  0
 12 13  2  0
 12 14  1  0
 14 15  1  0
 15 16  1  0
 15 17  1  0
 17 18  2  0
 17 22  1  0
 18 19  1  0
 19 20  2  0
 20 21  1  0
 21 22  2  0
M  CHG  1  20   1
M  END
>  <cluster>  (175) 
cluster_53474

>  <glide_score>  (175) 
-6.63234869540423

>  <mmgbsa_dG>  (175) 
-40.1936074951445

$$$$
No_4561
     RDKit          3D

 21 23  0  0  1  0  0  0  0  0999 V2000
  -42.5043   79.4024  -50.3160 N   0  0  0  0  0  0  0  0  0  0  0  0
  -41.7100   78.4196  -49.8857 C   0  0  0  0  0  0  0  0  0  0  0  0
  -41.5222   77.4034  -50.5529 O   0  0  0  0  0  0  0  0  0  0  0  0
  -41.0517   78.6056  -48.5750 C   0  0  0  0  0  0  0  0  0  0  0  0
  -39.3504   78.2028  -48.5167 S   0  0  0  0  0  0  0  0  0  0  0  0
  -39.2669   78.5254  -46.7980 C   0  0  0  0  0  0  0  0  0  0  0  0
  -38.1724   78.3841  -46.0076 N   0  0  0  0  0  0  0  0  0  0  0  0
  -37.1221   77.5533  -46.1609 C   0  0  0  0  0  0  0  0  0  0  0  0
  -36.9468   76.8308  -47.1413 O   0  0  0  0  0  0  0  0  0  0  0  0
  -36.1176   77.5383  -45.0013 C   0  0  0  0  0  0  0  0  0  0  0  0
  -35.5220   76.2032  -44.7230 N   0  0  1  0  0  0  0  0  0  0  0  0
  -34.3945   75.8628  -45.6273 C   0  0  0  0  0  0  0  0  0  0  0  0
  -35.1361   76.0783  -43.2970 C   0  0  0  0  0  0  0  0  0  0  0  0
  -36.2582   75.5900  -42.4060 C   0  0  0  0  0  0  0  0  0  0  0  0
  -35.1219   74.6600  -42.7760 C   0  0  0  0  0  0  0  0  0  0  0  0
  -40.4865   78.9571  -46.3480 C   0  0  0  0  0  0  0  0  0  0  0  0
  -41.5184   78.9926  -47.3388 C   0  0  0  0  0  0  0  0  0  0  0  0
  -42.9460   79.3637  -47.0330 C   0  0  0  0  0  0  0  0  0  0  0  0
  -43.9142   78.2989  -46.4944 C   0  0  0  0  0  0  0  0  0  0  0  0
  -43.9209   79.0012  -45.1347 C   0  0  0  0  0  0  0  0  0  0  0  0
  -43.2657   80.2081  -45.7931 C   0  0  0  0  0  0  0  0  0  0  0  0
  1  2  1  0
  2  3  2  0
  2  4  1  0
  4  5  1  0
  4 17  2  0
  5  6  1  0
  6  7  1  0
  6 16  2  0
  7  8  1  0
  8  9  2  0
  8 10  1  0
 10 11  1  0
 11 12  1  6
 11 13  1  0
 13 14  1  0
 13 15  1  0
 14 15  1  0
 16 17  1  0
 17 18  1  0
 18 19  1  0
 18 21  1  0
 19 20  1  0
 20 21  1  0
M  CHG  1  11   1
M  END
>  <cluster>  (176) 
cluster_62597

>  <glide_score>  (176) 
-6.56580886115509

>  <mmgbsa_dG>  (176) 
-40.1918853682364

$$$$
No_340
     RDKit          3D

 22 23  0  0  1  0  0  0  0  0999 V2000
  -36.0268   73.9365  -41.8089 C   0  0  0  0  0  0  0  0  0  0  0  0
  -36.2121   75.3613  -42.3424 C   0  0  0  0  0  0  0  0  0  0  0  0
  -35.0504   75.8204  -43.2513 C   0  0  0  0  0  0  0  0  0  0  0  0
  -35.5220   76.2027  -44.6072 N   0  0  2  0  0  0  0  0  0  0  0  0
  -34.4822   76.0122  -45.6575 C   0  0  0  0  0  0  0  0  0  0  0  0
  -35.0624   75.9735  -47.0868 C   0  0  0  0  0  0  0  0  0  0  0  0
  -35.3065   77.3132  -47.6025 N   0  0  0  0  0  0  0  0  0  0  0  0
  -36.0827   78.2387  -47.0259 C   0  0  0  0  0  0  0  0  0  0  0  0
  -36.0240   79.4132  -47.3779 O   0  0  0  0  0  0  0  0  0  0  0  0
  -37.0283   77.7905  -45.8927 C   0  0  2  0  0  0  0  0  0  0  0  0
  -38.1900   78.7970  -45.6365 C   0  0  0  0  0  0  0  0  0  0  0  0
  -39.4239   78.4731  -46.3554 N   0  0  0  0  0  0  0  0  0  0  0  0
  -39.6902   78.6975  -47.6489 C   0  0  0  0  0  0  0  0  0  0  0  0
  -38.7922   79.0029  -48.4303 O   0  0  0  0  0  0  0  0  0  0  0  0
  -40.9954   78.6021  -48.0303 N   0  0  0  0  0  0  0  0  0  0  0  0
  -41.2586   78.5378  -49.4813 C   0  0  0  0  0  0  0  0  0  0  0  0
  -42.0993   78.6758  -47.2132 C   0  0  0  0  0  0  0  0  0  0  0  0
  -43.3645   78.2625  -47.5538 C   0  0  0  0  0  0  0  0  0  0  0  0
  -44.3803   78.6027  -46.6173 C   0  0  0  0  0  0  0  0  0  0  0  0
  -43.8906   79.2258  -45.5083 C   0  0  0  0  0  0  0  0  0  0  0  0
  -42.1695   79.4024  -45.6076 S   0  0  0  0  0  0  0  0  0  0  0  0
  -36.1907   77.5341  -44.6165 C   0  0  0  0  0  0  0  0  0  0  0  0
  1  2  1  0
  2  3  1  0
  4  3  1  1
  4  5  1  0
  4 22  1  0
  5  6  1  0
  6  7  1  0
  7  8  1  0
  8  9  2  0
  8 10  1  0
 10 11  1  1
 10 22  1  0
 11 12  1  0
 12 13  1  0
 13 14  2  0
 13 15  1  0
 15 16  1  0
 15 17  1  0
 17 18  2  0
 17 21  1  0
 18 19  1  0
 19 20  2  0
 20 21  1  0
M  CHG  1   4   1
M  END
>  <cluster>  (177) 
cluster_31996

>  <glide_score>  (177) 
-6.64126416227985

>  <mmgbsa_dG>  (177) 
-40.1782661508914

$$$$
No_1980
     RDKit          3D

 21 23  0  0  1  0  0  0  0  0999 V2000
  -42.0729   78.3372  -48.7972 C   0  0  0  0  0  0  0  0  0  0  0  0
  -41.9168   78.6025  -47.3359 C   0  0  0  0  0  0  0  0  0  0  0  0
  -43.0849   78.7443  -46.6469 O   0  0  0  0  0  0  0  0  0  0  0  0
  -42.7511   79.0019  -45.3571 C   0  0  0  0  0  0  0  0  0  0  0  0
  -41.3948   79.0096  -45.2095 C   0  0  0  0  0  0  0  0  0  0  0  0
  -40.8416   78.7456  -46.4925 C   0  0  0  0  0  0  0  0  0  0  0  0
  -39.4339   78.6958  -46.9440 C   0  0  0  0  0  0  0  0  0  0  0  0
  -39.1268   79.0022  -48.0983 O   0  0  0  0  0  0  0  0  0  0  0  0
  -38.5135   78.3121  -46.0432 N   0  0  0  0  0  0  0  0  0  0  0  0
  -37.0735   78.2621  -46.3196 C   0  0  1  0  0  0  0  0  0  0  0  0
  -36.4075   79.6354  -46.0961 C   0  0  0  0  0  0  0  0  0  0  0  0
  -34.9366   79.6129  -46.5468 C   0  0  0  0  0  0  0  0  0  0  0  0
  -34.1513   78.4570  -45.9002 C   0  0  0  0  0  0  0  0  0  0  0  0
  -34.8745   77.1127  -46.0985 C   0  0  0  0  0  0  0  0  0  0  0  0
  -36.3252   77.1424  -45.5503 C   0  0  1  0  0  0  0  0  0  0  0  0
  -36.4463   77.2876  -44.0078 C   0  0  0  0  0  0  0  0  0  0  0  0
  -36.1133   76.1050  -43.1901 N   0  0  0  0  0  0  0  0  0  0  0  0
  -35.0098   75.2842  -43.2079 C   0  0  0  0  0  0  0  0  0  0  0  0
  -35.1855   74.3472  -42.2231 C   0  0  0  0  0  0  0  0  0  0  0  0
  -36.3630   74.6597  -41.6080 N   0  0  0  0  0  0  0  0  0  0  0  0
  -36.9215   75.7191  -42.1939 C   0  0  0  0  0  0  0  0  0  0  0  0
  1  2  1  0
  2  3  1  0
  2  6  2  0
  3  4  1  0
  4  5  2  0
  5  6  1  0
  6  7  1  0
  7  8  2  0
  7  9  1  0
 10  9  1  1
 10 11  1  0
 10 15  1  0
 11 12  1  0
 12 13  1  0
 13 14  1  0
 14 15  1  0
 15 16  1  1
 16 17  1  0
 17 18  1  0
 17 21  1  0
 18 19  2  0
 19 20  1  0
 20 21  2  0
M  CHG  1  20   1
M  END
>  <cluster>  (178) 
cluster_38912

>  <glide_score>  (178) 
-6.56463395484095

>  <mmgbsa_dG>  (178) 
-40.1767537356864

$$$$
No_1874
     RDKit          3D

 22 24  0  0  1  0  0  0  0  0999 V2000
  -35.5499   71.1956  -41.4936 C   0  0  0  0  0  0  0  0  0  0  0  0
  -35.2331   72.4977  -42.0630 N   0  0  0  0  0  0  0  0  0  0  0  0
  -35.6466   73.7084  -41.4072 C   0  0  0  0  0  0  0  0  0  0  0  0
  -35.2437   74.7764  -42.4191 C   0  0  0  0  0  0  0  0  0  0  0  0
  -34.7021   74.0303  -43.5504 N   0  0  0  0  0  0  0  0  0  0  0  0
  -34.3222   74.5841  -44.7376 C   0  0  0  0  0  0  0  0  0  0  0  0
  -33.8969   73.9382  -45.6971 O   0  0  0  0  0  0  0  0  0  0  0  0
  -34.4627   76.1009  -44.9401 C   0  0  0  0  0  0  0  0  0  0  0  0
  -35.7968   76.3879  -45.5061 N   0  0  2  0  0  0  0  0  0  0  0  0
  -35.9160   76.4010  -46.9770 C   0  0  0  0  0  0  0  0  0  0  0  0
  -36.9003   77.5389  -47.2764 C   0  0  0  0  0  0  0  0  0  0  0  0
  -37.5327   77.7538  -45.9822 N   0  0  0  0  0  0  0  0  0  0  0  0
  -38.3339   78.9642  -45.8685 C   0  0  0  0  0  0  0  0  0  0  0  0
  -39.6619   79.0001  -46.5657 C   0  0  0  0  0  0  0  0  0  0  0  0
  -40.9205   79.0026  -46.0075 C   0  0  0  0  0  0  0  0  0  0  0  0
  -41.8255   79.0027  -47.0597 N   0  0  0  0  0  0  0  0  0  0  0  0
  -43.2702   79.0230  -46.9645 C   0  0  0  0  0  0  0  0  0  0  0  0
  -41.0793   78.9931  -48.1731 C   0  0  0  0  0  0  0  0  0  0  0  0
  -39.7687   79.0026  -47.9558 N   0  0  0  0  0  0  0  0  0  0  0  0
  -36.4468   77.6176  -45.0340 C   0  0  0  0  0  0  0  0  0  0  0  0
  -34.6967   72.7093  -43.2680 C   0  0  0  0  0  0  0  0  0  0  0  0
  -34.3222   71.8026  -44.0077 O   0  0  0  0  0  0  0  0  0  0  0  0
  1  2  1  0
  2  3  1  0
  2 21  1  0
  3  4  1  0
  4  5  1  0
  5  6  1  0
  5 21  1  0
  6  7  2  0
  6  8  1  0
  9  8  1  6
  9 10  1  0
  9 20  1  0
 10 11  1  0
 11 12  1  0
 12 13  1  0
 12 20  1  0
 13 14  1  0
 14 15  2  0
 14 19  1  0
 15 16  1  0
 16 17  1  0
 16 18  1  0
 18 19  2  0
 21 22  2  0
M  CHG  1   9   1
M  END
>  <cluster>  (179) 
cluster_12426

>  <glide_score>  (179) 
-7.16627085941926

>  <mmgbsa_dG>  (179) 
-40.148194735295

$$$$
No_4852
     RDKit          3D

 21 22  0  0  1  0  0  0  0  0999 V2000
  -36.2300   75.6077  -47.4322 C   0  0  0  0  0  0  0  0  0  0  0  0
  -35.8990   77.1146  -47.3657 C   0  0  1  0  0  0  0  0  0  0  0  0
  -36.8435   77.7911  -48.3777 C   0  0  0  0  0  0  0  0  0  0  0  0
  -36.4333   78.0768  -49.5000 O   0  0  0  0  0  0  0  0  0  0  0  0
  -38.0891   78.0154  -47.9158 N   0  0  0  0  0  0  0  0  0  0  0  0
  -39.1294   78.5735  -48.5587 C   0  0  0  0  0  0  0  0  0  0  0  0
  -39.1207   78.9669  -49.7240 O   0  0  0  0  0  0  0  0  0  0  0  0
  -40.3914   78.6594  -47.7496 C   0  0  0  0  0  0  0  0  0  0  0  0
  -40.3545   78.8661  -46.3490 C   0  0  0  0  0  0  0  0  0  0  0  0
  -41.5502   79.0036  -45.6190 C   0  0  0  0  0  0  0  0  0  0  0  0
  -42.7932   78.9515  -46.2796 C   0  0  0  0  0  0  0  0  0  0  0  0
  -44.0786   79.1413  -45.5091 C   0  0  0  0  0  0  0  0  0  0  0  0
  -42.8361   78.7411  -47.6711 C   0  0  0  0  0  0  0  0  0  0  0  0
  -41.6430   78.5987  -48.4017 C   0  0  0  0  0  0  0  0  0  0  0  0
  -35.9808   77.7353  -46.0127 N   0  0  0  0  0  0  0  0  0  0  0  0
  -35.6053   79.1669  -46.0154 C   0  0  0  0  0  0  0  0  0  0  0  0
  -36.0587   79.9498  -44.7700 C   0  0  0  0  0  0  0  0  0  0  0  0
  -35.1218   79.9996  -43.7032 O   0  0  0  0  0  0  0  0  0  0  0  0
  -34.4955   78.7887  -43.2976 C   0  0  0  0  0  0  0  0  0  0  0  0
  -35.2864   77.4948  -43.5643 C   0  0  0  0  0  0  0  0  0  0  0  0
  -35.1866   76.9988  -45.0164 C   0  0  0  0  0  0  0  0  0  0  0  0
  2  1  1  1
  2  3  1  0
  2 15  1  0
  3  4  2  0
  3  5  1  0
  5  6  1  0
  6  7  2  0
  6  8  1  0
  8  9  2  0
  8 14  1  0
  9 10  1  0
 10 11  2  0
 11 12  1  0
 11 13  1  0
 13 14  2  0
 15 16  1  0
 15 21  1  0
 16 17  1  0
 17 18  1  0
 18 19  1  0
 19 20  1  0
 20 21  1  0
M  END
>  <cluster>  (180) 
cluster_10128

>  <glide_score>  (180) 
-7.55558927008958

>  <mmgbsa_dG>  (180) 
-40.0493478539356

$$$$
No_888
     RDKit          3D

 21 22  0  0  1  0  0  0  0  0999 V2000
  -42.8893   78.8905  -48.5108 C   0  0  0  0  0  0  0  0  0  0  0  0
  -41.4940   78.8209  -47.9164 C   0  0  0  0  0  0  0  0  0  0  0  0
  -40.3883   78.6027  -48.7640 C   0  0  0  0  0  0  0  0  0  0  0  0
  -39.0864   78.5169  -48.2344 C   0  0  0  0  0  0  0  0  0  0  0  0
  -38.8714   78.6027  -46.8392 C   0  0  0  0  0  0  0  0  0  0  0  0
  -37.4932   78.4924  -46.2289 C   0  0  0  0  0  0  0  0  0  0  0  0
  -37.1754   79.3012  -45.3541 O   0  0  0  0  0  0  0  0  0  0  0  0
  -36.6501   77.5049  -46.6374 N   0  0  0  0  0  0  0  0  0  0  0  0
  -37.0363   76.3883  -47.5153 C   0  0  0  0  0  0  0  0  0  0  0  0
  -35.2271   77.5101  -46.2418 C   0  0  0  0  0  0  0  0  0  0  0  0
  -34.8930   76.3709  -45.2733 C   0  0  0  0  0  0  0  0  0  0  0  0
  -34.3222   75.3595  -45.6832 O   0  0  0  0  0  0  0  0  0  0  0  0
  -35.2653   76.5384  -43.7928 C   0  0  0  0  0  0  0  0  0  0  0  0
  -35.5222   75.2011  -43.2077 N   0  0  1  0  0  0  0  0  0  0  0  0
  -34.3651   74.3891  -42.7975 C   0  0  0  0  0  0  0  0  0  0  0  0
  -34.9392   73.3880  -41.7958 C   0  0  0  0  0  0  0  0  0  0  0  0
  -36.3222   73.8026  -41.6077 N   0  0  0  0  0  0  0  0  0  0  0  0
  -36.4245   75.1736  -42.0608 C   0  0  0  0  0  0  0  0  0  0  0  0
  -39.9761   78.8864  -46.0077 C   0  0  0  0  0  0  0  0  0  0  0  0
  -41.2827   78.9895  -46.5282 C   0  0  0  0  0  0  0  0  0  0  0  0
  -42.4397   79.2734  -45.5853 C   0  0  0  0  0  0  0  0  0  0  0  0
  1  2  1  0
  2  3  2  0
  2 20  1  0
  3  4  1  0
  4  5  2  0
  5  6  1  0
  5 19  1  0
  6  7  2  0
  6  8  1  0
  8  9  1  0
  8 10  1  0
 10 11  1  0
 11 12  2  0
 11 13  1  0
 14 13  1  1
 14 15  1  0
 14 18  1  0
 15 16  1  0
 16 17  1  0
 17 18  1  0
 19 20  2  0
 20 21  1  0
M  CHG  1  14   1
M  END
>  <cluster>  (181) 
cluster_11440

>  <glide_score>  (181) 
-6.99935697712875

>  <mmgbsa_dG>  (181) 
-39.9195926893299

$$$$
No_461
     RDKit          3D

 22 24  0  0  1  0  0  0  0  0999 V2000
  -39.5220   79.3753  -47.7936 O   0  0  0  0  0  0  0  0  0  0  0  0
  -39.8852   79.0214  -46.6703 C   0  0  0  0  0  0  0  0  0  0  0  0
  -39.0596   79.0026  -45.6081 N   0  0  0  0  0  0  0  0  0  0  0  0
  -37.6855   79.5033  -45.5865 C   0  0  0  0  0  0  0  0  0  0  0  0
  -36.6268   78.3854  -45.6518 C   0  0  0  0  0  0  0  0  0  0  0  0
  -36.7297   77.5295  -46.8717 C   0  0  0  0  0  0  0  0  0  0  0  0
  -36.9159   76.2029  -46.8080 N   0  0  0  0  0  0  0  0  0  0  0  0
  -37.0084   75.7444  -48.1066 C   0  0  0  0  0  0  0  0  0  0  0  0
  -36.8413   76.8358  -48.9097 C   0  0  0  0  0  0  0  0  0  0  0  0
  -36.6351   77.9723  -48.1259 N   0  0  0  0  0  0  0  0  0  0  0  0
  -36.9348   76.7374  -50.3914 C   0  0  0  0  0  0  0  0  0  0  0  0
  -36.9521   77.7155  -51.1342 O   0  0  0  0  0  0  0  0  0  0  0  0
  -37.0212   75.4742  -50.8620 N   0  0  0  0  0  0  0  0  0  0  0  0
  -36.8718   74.2323  -50.0755 C   0  0  0  0  0  0  0  0  0  0  0  0
  -37.2630   74.3610  -48.5802 C   0  0  0  0  0  0  0  0  0  0  0  0
  -41.1426   78.6027  -46.4167 N   0  0  0  0  0  0  0  0  0  0  0  0
  -41.9995   78.1573  -47.5263 C   0  0  0  0  0  0  0  0  0  0  0  0
  -42.8793   79.2761  -48.0823 C   0  0  0  0  0  0  0  0  0  0  0  0
  -44.0374   79.4344  -47.2814 O   0  0  0  0  0  0  0  0  0  0  0  0
  -43.7814   79.9193  -45.9737 C   0  0  0  0  0  0  0  0  0  0  0  0
  -43.2639   78.8205  -45.0547 C   0  0  0  0  0  0  0  0  0  0  0  0
  -41.7466   78.6869  -45.0735 C   0  0  0  0  0  0  0  0  0  0  0  0
  1  2  2  0
  2  3  1  0
  2 16  1  0
  3  4  1  0
  4  5  1  0
  5  6  1  0
  6  7  1  0
  6 10  2  0
  7  8  1  0
  8  9  2  0
  8 15  1  0
  9 11  1  0
  9 10  1  0
 11 12  2  0
 11 13  1  0
 13 14  1  0
 14 15  1  0
 16 17  1  0
 16 22  1  0
 17 18  1  0
 18 19  1  0
 19 20  1  0
 20 21  1  0
 21 22  1  0
M  END
>  <cluster>  (182) 
cluster_53221

>  <glide_score>  (182) 
-6.57740913631386

>  <mmgbsa_dG>  (182) 
-39.913871605233

$$$$
No_3045
     RDKit          3D

 23 25  0  0  1  0  0  0  0  0999 V2000
  -33.1212   80.6027  -41.8670 N   0  0  0  0  0  0  0  0  0  0  0  0
  -33.9198   80.5179  -42.9253 C   0  0  0  0  0  0  0  0  0  0  0  0
  -34.7212   81.4027  -43.2089 O   0  0  0  0  0  0  0  0  0  0  0  0
  -33.7774   79.3761  -43.6057 N   0  0  0  0  0  0  0  0  0  0  0  0
  -34.5364   78.9973  -44.7956 C   0  0  2  0  0  0  0  0  0  0  0  0
  -35.4026   77.7519  -44.4792 C   0  0  0  0  0  0  0  0  0  0  0  0
  -36.6761   77.5980  -45.3469 C   0  0  0  0  0  0  0  0  0  0  0  0
  -36.5134   77.9500  -46.7694 N   0  0  0  0  0  0  0  0  0  0  0  0
  -37.4123   78.6022  -47.5601 C   0  0  0  0  0  0  0  0  0  0  0  0
  -37.0926   79.0647  -48.6572 O   0  0  0  0  0  0  0  0  0  0  0  0
  -38.8830   78.6338  -47.2255 C   0  0  0  0  0  0  0  0  0  0  0  0
  -39.4223   79.1469  -46.0009 C   0  0  0  0  0  0  0  0  0  0  0  0
  -40.7698   78.9674  -46.1281 C   0  0  0  0  0  0  0  0  0  0  0  0
  -40.9759   78.5285  -47.4077 N   0  0  0  0  0  0  0  0  0  0  0  0
  -39.8408   78.3398  -48.0984 N   0  0  0  0  0  0  0  0  0  0  0  0
  -42.2034   78.2048  -47.9370 O   0  0  0  0  0  0  0  0  0  0  0  0
  -43.2207   79.1166  -47.5091 C   0  0  0  0  0  0  0  0  0  0  0  0
  -43.2604   79.2443  -45.9739 C   0  0  0  0  0  0  0  0  0  0  0  0
  -44.3227   79.4021  -45.3777 O   0  0  0  0  0  0  0  0  0  0  0  0
  -41.9342   79.1343  -45.2081 C   0  0  0  0  0  0  0  0  0  0  0  0
  -35.2532   77.4827  -47.3744 C   0  0  0  0  0  0  0  0  0  0  0  0
  -34.1605   78.5616  -47.3212 C   0  0  0  0  0  0  0  0  0  0  0  0
  -33.5300   78.7399  -45.9343 C   0  0  0  0  0  0  0  0  0  0  0  0
  1  2  1  0
  2  3  2  0
  2  4  1  0
  5  4  1  1
  5  6  1  0
  5 23  1  0
  6  7  1  0
  7  8  1  0
  8  9  1  0
  8 21  1  0
  9 10  2  0
  9 11  1  0
 11 12  1  0
 11 15  2  0
 12 13  2  0
 13 14  1  0
 13 20  1  0
 14 15  1  0
 14 16  1  0
 16 17  1  0
 17 18  1  0
 18 19  2  0
 18 20  1  0
 21 22  1  0
 22 23  1  0
M  END
>  <cluster>  (183) 
cluster_87461

>  <glide_score>  (183) 
-7.15302052546704

>  <mmgbsa_dG>  (183) 
-39.8994892477203

$$$$
No_379
     RDKit          3D

 25 28  0  0  1  0  0  0  0  0999 V2000
  -36.2918   76.2418  -43.0396 C   0  0  0  0  0  0  0  0  0  0  0  0
  -35.5900   77.5094  -43.5162 C   0  0  0  0  0  0  0  0  0  0  0  0
  -34.7223   78.0134  -42.8077 O   0  0  0  0  0  0  0  0  0  0  0  0
  -35.9540   78.0566  -44.6909 N   0  0  0  0  0  0  0  0  0  0  0  0
  -35.3679   79.2555  -45.2568 C   0  0  0  0  0  0  0  0  0  0  0  0
  -36.3580   79.6823  -46.3460 C   0  0  0  0  0  0  0  0  0  0  0  0
  -37.0332   78.4632  -46.7879 N   0  0  0  0  0  0  0  0  0  0  0  0
  -36.2486   77.7660  -47.8288 C   0  0  2  0  0  0  0  0  0  0  0  0
  -36.0015   78.4064  -49.2127 C   0  0  0  0  0  0  0  0  0  0  0  0
  -37.1478   77.5878  -49.8481 C   0  0  2  0  0  0  0  0  0  0  0  0
  -38.4824   78.2547  -50.0079 C   0  0  0  0  0  0  0  0  0  0  0  0
  -38.5780   79.4055  -50.6642 N   0  0  0  0  0  0  0  0  0  0  0  0
  -39.9228   79.7666  -50.5020 O   0  0  0  0  0  0  0  0  0  0  0  0
  -40.4915   78.7619  -49.7960 C   0  0  0  0  0  0  0  0  0  0  0  0
  -41.9357   78.8608  -49.4242 C   0  0  0  0  0  0  0  0  0  0  0  0
  -42.2358   79.0005  -47.9343 C   0  0  0  0  0  0  0  0  0  0  0  0
  -41.2492   78.8617  -46.9272 C   0  0  0  0  0  0  0  0  0  0  0  0
  -41.5967   79.0027  -45.5717 C   0  0  0  0  0  0  0  0  0  0  0  0
  -42.9290   79.2675  -45.2075 C   0  0  0  0  0  0  0  0  0  0  0  0
  -43.9152   79.4030  -46.1975 C   0  0  0  0  0  0  0  0  0  0  0  0
  -43.5634   79.2775  -47.5524 C   0  0  0  0  0  0  0  0  0  0  0  0
  -39.6518   77.7738  -49.5005 N   0  0  0  0  0  0  0  0  0  0  0  0
  -37.0436   76.6792  -48.5936 C   0  0  0  0  0  0  0  0  0  0  0  0
  -37.4203   75.5407  -48.3191 O   0  0  0  0  0  0  0  0  0  0  0  0
  -37.0588   77.6791  -45.5551 C   0  0  0  0  0  0  0  0  0  0  0  0
  1  2  1  0
  2  3  2  0
  2  4  1  0
  4  5  1  0
  4 25  1  0
  5  6  1  0
  6  7  1  0
  8  7  1  1
  7 25  1  0
  8  9  1  0
  8 23  1  0
  9 10  1  0
 10 11  1  1
 10 23  1  0
 11 12  2  0
 11 22  1  0
 12 13  1  0
 13 14  1  0
 14 15  1  0
 14 22  2  0
 15 16  1  0
 16 17  2  0
 16 21  1  0
 17 18  1  0
 18 19  2  0
 19 20  1  0
 20 21  2  0
 23 24  2  0
M  END
>  <cluster>  (184) 
cluster_74243

>  <glide_score>  (184) 
-7.10382158845503

>  <mmgbsa_dG>  (184) 
-39.7653219209897

$$$$
No_1619
     RDKit          3D

 23 24  0  0  1  0  0  0  0  0999 V2000
  -42.3500   79.2262  -50.0617 C   0  0  0  0  0  0  0  0  0  0  0  0
  -41.2261   78.8811  -49.2230 N   0  0  0  0  0  0  0  0  0  0  0  0
  -40.0207   78.5469  -49.6946 C   0  0  0  0  0  0  0  0  0  0  0  0
  -39.1069   78.3644  -48.7641 N   0  0  0  0  0  0  0  0  0  0  0  0
  -39.7949   78.6024  -47.5765 C   0  0  0  0  0  0  0  0  0  0  0  0
  -39.1712   78.5598  -46.3026 N   0  0  0  0  0  0  0  0  0  0  0  0
  -37.8415   78.6343  -46.1293 C   0  0  0  0  0  0  0  0  0  0  0  0
  -37.0859   79.2772  -46.8572 O   0  0  0  0  0  0  0  0  0  0  0  0
  -37.4006   77.9177  -45.0872 N   0  0  0  0  0  0  0  0  0  0  0  0
  -35.9971   77.5279  -44.9297 C   0  0  1  0  0  0  0  0  0  0  0  0
  -35.1756   78.6665  -44.2825 C   0  0  0  0  0  0  0  0  0  0  0  0
  -35.7726   76.2027  -44.2871 N   0  0  2  0  0  0  0  0  0  0  0  0
  -35.7031   76.2144  -42.8121 C   0  0  0  0  0  0  0  0  0  0  0  0
  -35.7295   74.7794  -42.2742 C   0  0  0  0  0  0  0  0  0  0  0  0
  -34.7594   73.8997  -42.9321 N   0  0  0  0  0  0  0  0  0  0  0  0
  -34.3841   72.7217  -42.1482 C   0  0  0  0  0  0  0  0  0  0  0  0
  -34.3222   74.0965  -44.1977 C   0  0  0  0  0  0  0  0  0  0  0  0
  -33.6235   73.2798  -44.7942 O   0  0  0  0  0  0  0  0  0  0  0  0
  -34.7220   75.3833  -44.9461 C   0  0  0  0  0  0  0  0  0  0  0  0
  -41.1338   78.8713  -47.8217 C   0  0  0  0  0  0  0  0  0  0  0  0
  -42.3114   79.1930  -46.9171 C   0  0  0  0  0  0  0  0  0  0  0  0
  -41.9476   79.4022  -45.4354 C   0  0  0  0  0  0  0  0  0  0  0  0
  -43.4554   78.1677  -47.0097 C   0  0  0  0  0  0  0  0  0  0  0  0
  1  2  1  0
  2  3  1  0
  2 20  1  0
  3  4  2  0
  4  5  1  0
  5  6  1  0
  5 20  2  0
  6  7  1  0
  7  8  2  0
  7  9  1  0
  9 10  1  0
 10 11  1  1
 10 12  1  0
 12 13  1  1
 12 19  1  0
 13 14  1  0
 14 15  1  0
 15 16  1  0
 15 17  1  0
 17 18  2  0
 17 19  1  0
 20 21  1  0
 21 22  1  0
 21 23  1  0
M  CHG  1  12   1
M  END
>  <cluster>  (185) 
cluster_43827

>  <glide_score>  (185) 
-6.93386477165856

>  <mmgbsa_dG>  (185) 
-39.7650817483955

$$$$
No_1420
     RDKit          3D

 22 24  0  0  1  0  0  0  0  0999 V2000
  -35.5202   71.8667  -41.5402 C   0  0  0  0  0  0  0  0  0  0  0  0
  -35.8242   73.3315  -41.2085 C   0  0  0  0  0  0  0  0  0  0  0  0
  -35.8087   74.1877  -42.4076 N   0  0  0  0  0  0  0  0  0  0  0  0
  -34.5008   74.6437  -42.8721 C   0  0  0  0  0  0  0  0  0  0  0  0
  -35.1238   76.0147  -43.1243 C   0  0  0  0  0  0  0  0  0  0  0  0
  -35.5183   76.2028  -44.5156 N   0  0  0  0  0  0  0  0  0  0  0  0
  -35.2329   77.2851  -45.2524 C   0  0  0  0  0  0  0  0  0  0  0  0
  -34.6363   78.2660  -44.8087 O   0  0  0  0  0  0  0  0  0  0  0  0
  -35.6864   77.2479  -46.7116 C   0  0  0  0  0  0  0  0  0  0  0  0
  -36.2699   78.5838  -47.1992 C   0  0  0  0  0  0  0  0  0  0  0  0
  -37.5961   78.9010  -46.5942 C   0  0  0  0  0  0  0  0  0  0  0  0
  -38.7862   78.5226  -47.0539 N   0  0  0  0  0  0  0  0  0  0  0  0
  -39.6042   79.0677  -46.1108 C   0  0  0  0  0  0  0  0  0  0  0  0
  -41.0760   79.0026  -46.2464 C   0  0  0  0  0  0  0  0  0  0  0  0
  -41.9476   79.4021  -45.2084 C   0  0  0  0  0  0  0  0  0  0  0  0
  -43.3397   79.3479  -45.4106 C   0  0  0  0  0  0  0  0  0  0  0  0
  -43.9016   78.9373  -46.5640 N   0  0  0  0  0  0  0  0  0  0  0  0
  -43.0764   78.5848  -47.5674 C   0  0  0  0  0  0  0  0  0  0  0  0
  -41.6754   78.5980  -47.4591 C   0  0  0  0  0  0  0  0  0  0  0  0
  -39.0137   79.7462  -45.1351 N   0  0  0  0  0  0  0  0  0  0  0  0
  -37.6507   79.6108  -45.4402 O   0  0  0  0  0  0  0  0  0  0  0  0
  -36.2824   75.5593  -42.2363 C   0  0  0  0  0  0  0  0  0  0  0  0
  1  2  1  0
  2  3  1  0
  3  4  1  0
  3 22  1  0
  4  5  1  0
  5  6  1  0
  5 22  1  0
  6  7  1  0
  7  8  2  0
  7  9  1  0
  9 10  1  0
 10 11  1  0
 11 12  2  0
 11 21  1  0
 12 13  1  0
 13 14  1  0
 13 20  2  0
 14 15  2  0
 14 19  1  0
 15 16  1  0
 16 17  2  0
 17 18  1  0
 18 19  2  0
 20 21  1  0
M  CHG  1   3   1
M  END
>  <cluster>  (186) 
cluster_33076

>  <glide_score>  (186) 
-6.78830242350343

>  <mmgbsa_dG>  (186) 
-39.7606476084402

$$$$
No_1453
     RDKit          3D

 23 25  0  0  1  0  0  0  0  0999 V2000
  -32.7327   80.6028  -41.6714 N   0  0  0  0  0  0  0  0  0  0  0  0
  -33.1332   81.1086  -42.8360 C   0  0  0  0  0  0  0  0  0  0  0  0
  -33.6778   82.2076  -42.8857 O   0  0  0  0  0  0  0  0  0  0  0  0
  -32.8802   80.2828  -44.1157 C   0  0  0  0  0  0  0  0  0  0  0  0
  -33.6824   78.9656  -44.1336 C   0  0  0  0  0  0  0  0  0  0  0  0
  -35.1796   79.1987  -44.3937 C   0  0  0  0  0  0  0  0  0  0  0  0
  -35.3438   79.8904  -45.6848 N   0  0  0  0  0  0  0  0  0  0  0  0
  -35.9970   79.4121  -46.7748 C   0  0  0  0  0  0  0  0  0  0  0  0
  -36.1306   80.0571  -47.8155 O   0  0  0  0  0  0  0  0  0  0  0  0
  -36.4939   78.1744  -46.6393 N   0  0  0  0  0  0  0  0  0  0  0  0
  -37.2086   77.4571  -47.6844 C   0  0  0  0  0  0  0  0  0  0  0  0
  -38.6097   77.9410  -47.8760 C   0  0  0  0  0  0  0  0  0  0  0  0
  -39.5664   78.2578  -46.9489 C   0  0  0  0  0  0  0  0  0  0  0  0
  -40.8108   78.6027  -47.5753 C   0  0  0  0  0  0  0  0  0  0  0  0
  -41.9641   78.8627  -46.7996 N   0  0  0  0  0  0  0  0  0  0  0  0
  -43.2618   79.0082  -47.2803 C   0  0  0  0  0  0  0  0  0  0  0  0
  -44.0712   79.2170  -46.1876 C   0  0  0  0  0  0  0  0  0  0  0  0
  -43.2996   79.2040  -45.0306 N   0  0  0  0  0  0  0  0  0  0  0  0
  -42.0636   79.0097  -45.4696 C   0  0  0  0  0  0  0  0  0  0  0  0
  -40.8125   78.6012  -48.8921 N   0  0  0  0  0  0  0  0  0  0  0  0
  -39.2919   78.1695  -49.4499 S   0  0  0  0  0  0  0  0  0  0  0  0
  -34.7005   81.2132  -45.6899 C   0  0  0  0  0  0  0  0  0  0  0  0
  -33.1854   81.0703  -45.4145 C   0  0  0  0  0  0  0  0  0  0  0  0
  1  2  1  0
  2  3  2  0
  2  4  1  0
  4  5  1  0
  4 23  1  0
  5  6  1  0
  6  7  1  0
  7  8  1  0
  7 22  1  0
  8  9  2  0
  8 10  1  0
 10 11  1  0
 11 12  1  0
 12 13  2  0
 12 21  1  0
 13 14  1  0
 14 15  1  0
 14 20  2  0
 15 16  1  0
 15 19  1  0
 16 17  2  0
 17 18  1  0
 18 19  2  0
 20 21  1  0
 22 23  1  0
M  END
>  <cluster>  (187) 
cluster_101697

>  <glide_score>  (187) 
-6.67748704615248

>  <mmgbsa_dG>  (187) 
-39.6867572780393

$$$$
No_2918
     RDKit          3D

 23 26  0  0  1  0  0  0  0  0999 V2000
  -35.6105   74.1674  -41.7218 C   0  0  0  0  0  0  0  0  0  0  0  0
  -34.5876   74.4065  -42.8489 C   0  0  0  0  0  0  0  0  0  0  0  0
  -34.2559   73.0530  -43.5100 C   0  0  0  0  0  0  0  0  0  0  0  0
  -35.1222   75.4028  -43.8196 N   0  0  2  0  0  0  0  0  0  0  0  0
  -34.4947   75.5155  -45.1475 C   0  0  0  0  0  0  0  0  0  0  0  0
  -34.4649   77.0172  -45.4418 C   0  0  0  0  0  0  0  0  0  0  0  0
  -35.4152   77.6261  -44.5150 N   0  0  0  0  0  0  0  0  0  0  0  0
  -36.8005   77.6142  -45.0035 C   0  0  0  0  0  0  0  0  0  0  0  0
  -37.0893   78.7622  -45.9832 C   0  0  1  0  0  0  0  0  0  0  0  0
  -36.8060   78.4762  -47.5471 C   0  0  0  0  0  0  0  0  0  0  0  0
  -35.8381   78.2868  -48.2802 O   0  0  0  0  0  0  0  0  0  0  0  0
  -38.2396   78.5346  -47.8335 C   0  0  0  0  0  0  0  0  0  0  0  0
  -39.2545   78.4381  -48.7806 C   0  0  0  0  0  0  0  0  0  0  0  0
  -40.5328   78.6078  -48.3455 N   0  0  0  0  0  0  0  0  0  0  0  0
  -40.8257   78.8643  -47.0231 C   0  0  0  0  0  0  0  0  0  0  0  0
  -42.1932   79.0023  -46.6616 N   0  0  0  0  0  0  0  0  0  0  0  0
  -42.6968   79.3986  -45.4290 C   0  0  0  0  0  0  0  0  0  0  0  0
  -44.0596   79.4010  -45.4961 C   0  0  0  0  0  0  0  0  0  0  0  0
  -44.4239   79.0026  -46.8075 C   0  0  0  0  0  0  0  0  0  0  0  0
  -43.2721   78.7643  -47.5005 C   0  0  0  0  0  0  0  0  0  0  0  0
  -39.8286   78.9860  -46.0069 C   0  0  0  0  0  0  0  0  0  0  0  0
  -38.5241   78.7978  -46.4538 C   0  0  0  0  0  0  0  0  0  0  0  0
  -35.2569   76.7874  -43.3256 C   0  0  0  0  0  0  0  0  0  0  0  0
  1  2  1  0
  2  3  1  0
  4  2  1  1
  4  5  1  0
  4 23  1  0
  5  6  1  0
  6  7  1  0
  7  8  1  0
  7 23  1  0
  9  8  1  1
  9 10  1  0
  9 22  1  0
 10 11  2  0
 10 12  1  0
 12 13  2  0
 12 22  1  0
 13 14  1  0
 14 15  2  0
 15 16  1  0
 15 21  1  0
 16 17  1  0
 16 20  1  0
 17 18  2  0
 18 19  1  0
 19 20  2  0
 21 22  2  0
M  CHG  1   4   1
M  END
>  <cluster>  (188) 
cluster_108438

>  <glide_score>  (188) 
-6.60839306712455

>  <mmgbsa_dG>  (188) 
-39.6246283998189

$$$$
No_148
     RDKit          3D

 21 23  0  0  1  0  0  0  0  0999 V2000
  -36.6157   75.7629  -42.2204 C   0  0  0  0  0  0  0  0  0  0  0  0
  -36.1167   76.2031  -43.5150 N   0  0  0  0  0  0  0  0  0  0  0  0
  -35.4006   77.3085  -43.7586 C   0  0  0  0  0  0  0  0  0  0  0  0
  -35.1222   78.1311  -42.8865 O   0  0  0  0  0  0  0  0  0  0  0  0
  -34.9194   77.5288  -45.2048 C   0  0  1  0  0  0  0  0  0  0  0  0
  -33.9221   76.4917  -45.7487 C   0  0  0  0  0  0  0  0  0  0  0  0
  -34.7302   76.5434  -47.0437 C   0  0  0  0  0  0  0  0  0  0  0  0
  -35.8402   77.0010  -46.2139 N   0  0  0  0  0  0  0  0  0  0  0  0
  -36.6543   78.0333  -46.8473 C   0  0  0  0  0  0  0  0  0  0  0  0
  -37.6100   77.3929  -47.8690 C   0  0  0  0  0  0  0  0  0  0  0  0
  -38.4375   78.3745  -48.4782 O   0  0  0  0  0  0  0  0  0  0  0  0
  -39.6646   78.5370  -47.9349 C   0  0  0  0  0  0  0  0  0  0  0  0
  -39.9895   78.6056  -46.5585 C   0  0  0  0  0  0  0  0  0  0  0  0
  -41.3388   78.8134  -46.4916 C   0  0  0  0  0  0  0  0  0  0  0  0
  -42.2288   79.0027  -45.4080 C   0  0  0  0  0  0  0  0  0  0  0  0
  -43.5696   79.1759  -45.6469 C   0  0  0  0  0  0  0  0  0  0  0  0
  -44.0598   79.1685  -46.9718 C   0  0  0  0  0  0  0  0  0  0  0  0
  -43.1975   79.0039  -48.0318 C   0  0  0  0  0  0  0  0  0  0  0  0
  -41.8661   78.8339  -47.8042 N   0  0  0  0  0  0  0  0  0  0  0  0
  -40.8013   78.6718  -48.6877 C   0  0  0  0  0  0  0  0  0  0  0  0
  -40.9738   78.6627  -50.1711 C   0  0  0  0  0  0  0  0  0  0  0  0
  1  2  1  0
  2  3  1  0
  3  4  2  0
  5  3  1  1
  5  6  1  0
  5  8  1  0
  6  7  1  0
  7  8  1  0
  8  9  1  0
  9 10  1  0
 10 11  1  0
 11 12  1  0
 12 13  1  0
 12 20  2  0
 13 14  2  0
 14 15  1  0
 14 19  1  0
 15 16  2  0
 16 17  1  0
 17 18  2  0
 18 19  1  0
 19 20  1  0
 20 21  1  0
M  END
>  <cluster>  (189) 
cluster_68736

>  <glide_score>  (189) 
-6.5481407615684

>  <mmgbsa_dG>  (189) 
-39.6208635826843

$$$$
No_2208
     RDKit          3D

 21 23  0  0  1  0  0  0  0  0999 V2000
  -32.7964   80.6027  -42.1249 N   0  0  0  0  0  0  0  0  0  0  0  0
  -33.6423   80.8068  -43.1266 C   0  0  0  0  0  0  0  0  0  0  0  0
  -34.3206   81.8283  -43.2079 O   0  0  0  0  0  0  0  0  0  0  0  0
  -33.7011   79.7940  -43.9991 N   0  0  0  0  0  0  0  0  0  0  0  0
  -34.5331   79.8354  -45.1973 C   0  0  0  0  0  0  0  0  0  0  0  0
  -34.6589   78.5008  -45.9436 C   0  0  0  0  0  0  0  0  0  0  0  0
  -36.0286   78.9436  -46.2111 N   0  0  0  0  0  0  0  0  0  0  0  0
  -37.0060   77.8574  -46.3189 C   0  0  2  0  0  0  0  0  0  0  0  0
  -36.8903   77.1544  -47.6693 C   0  0  0  0  0  0  0  0  0  0  0  0
  -37.9592   77.8013  -48.5487 C   0  0  0  0  0  0  0  0  0  0  0  0
  -39.0039   78.2765  -47.6430 N   0  0  0  0  0  0  0  0  0  0  0  0
  -40.2434   78.6027  -48.0938 C   0  0  0  0  0  0  0  0  0  0  0  0
  -40.4628   78.6823  -49.3032 O   0  0  0  0  0  0  0  0  0  0  0  0
  -41.4307   78.7070  -47.1564 C   0  0  0  0  0  0  0  0  0  0  0  0
  -41.3630   79.2708  -45.8581 C   0  0  0  0  0  0  0  0  0  0  0  0
  -42.5186   79.4024  -45.0692 C   0  0  0  0  0  0  0  0  0  0  0  0
  -43.7693   79.0028  -45.5563 C   0  0  0  0  0  0  0  0  0  0  0  0
  -43.8613   78.4518  -46.8407 C   0  0  0  0  0  0  0  0  0  0  0  0
  -42.7049   78.3073  -47.6332 C   0  0  0  0  0  0  0  0  0  0  0  0
  -38.4489   78.3967  -46.2958 C   0  0  0  0  0  0  0  0  0  0  0  0
  -36.0287   79.6330  -44.9251 C   0  0  0  0  0  0  0  0  0  0  0  0
  1  2  1  0
  2  3  2  0
  2  4  1  0
  4  5  1  0
  5  6  1  0
  5 21  1  0
  6  7  1  0
  8  7  1  6
  7 21  1  0
  8  9  1  0
  8 20  1  0
  9 10  1  0
 10 11  1  0
 11 12  1  0
 11 20  1  0
 12 13  2  0
 12 14  1  0
 14 15  2  0
 14 19  1  0
 15 16  1  0
 16 17  2  0
 17 18  1  0
 18 19  2  0
M  END
>  <cluster>  (190) 
cluster_18036

>  <glide_score>  (190) 
-6.5973094578289

>  <mmgbsa_dG>  (190) 
-39.5815798730328

$$$$
No_3828
     RDKit          3D

 21 23  0  0  1  0  0  0  0  0999 V2000
  -39.9229   78.7533  -47.5134 O   0  0  0  0  0  0  0  0  0  0  0  0
  -40.3681   79.0019  -46.3931 C   0  0  0  0  0  0  0  0  0  0  0  0
  -39.5019   79.8027  -45.4184 C   0  0  0  0  0  0  0  0  0  0  0  0
  -37.9679   79.6401  -45.5586 C   0  0  0  0  0  0  0  0  0  0  0  0
  -37.4257   78.2272  -45.2674 C   0  0  0  0  0  0  0  0  0  0  0  0
  -35.6125   78.3175  -44.8611 S   0  0  0  0  0  0  0  0  0  0  0  0
  -35.4314   79.4471  -43.8425 O   0  0  0  0  0  0  0  0  0  0  0  0
  -35.5381   76.7541  -43.9088 C   0  0  0  0  0  0  0  0  0  0  0  0
  -36.3223   76.6005  -42.7413 C   0  0  0  0  0  0  0  0  0  0  0  0
  -36.3245   75.3923  -42.0132 C   0  0  0  0  0  0  0  0  0  0  0  0
  -35.4915   74.3573  -42.4602 C   0  0  0  0  0  0  0  0  0  0  0  0
  -34.7214   74.5135  -43.6058 C   0  0  0  0  0  0  0  0  0  0  0  0
  -34.7222   75.6982  -44.3647 C   0  0  0  0  0  0  0  0  0  0  0  0
  -34.0691   73.3128  -43.8824 N   0  0  0  0  0  0  0  0  0  0  0  0
  -34.4854   72.3587  -43.0392 C   0  0  0  0  0  0  0  0  0  0  0  0
  -34.3221   71.1519  -43.2076 O   0  0  0  0  0  0  0  0  0  0  0  0
  -35.3602   72.9548  -41.9235 C   0  0  0  0  0  0  0  0  0  0  0  0
  -41.7326   78.6026  -45.8587 C   0  0  0  0  0  0  0  0  0  0  0  0
  -42.7859   79.7039  -45.6533 C   0  0  0  0  0  0  0  0  0  0  0  0
  -43.4210   79.3243  -46.9921 C   0  0  0  0  0  0  0  0  0  0  0  0
  -42.7220   77.9704  -46.8634 C   0  0  0  0  0  0  0  0  0  0  0  0
  1  2  2  0
  2  3  1  0
  2 18  1  0
  3  4  1  0
  4  5  1  0
  6  5  1  1
  6  7  2  0
  6  8  1  0
  8  9  2  0
  8 13  1  0
  9 10  1  0
 10 11  2  0
 11 12  1  0
 11 17  1  0
 12 13  2  0
 12 14  1  0
 14 15  1  0
 15 16  2  0
 15 17  1  0
 18 19  1  0
 18 21  1  0
 19 20  1  0
 20 21  1  0
M  END
>  <cluster>  (191) 
cluster_19656

>  <glide_score>  (191) 
-6.66116556748195

>  <mmgbsa_dG>  (191) 
-39.4998265903414

$$$$
No_3448
     RDKit          3D

 24 26  0  0  1  0  0  0  0  0999 V2000
  -42.9156   79.3898  -49.6298 C   0  0  0  0  0  0  0  0  0  0  0  0
  -42.0428   78.4297  -50.2753 N   0  0  0  0  0  0  0  0  0  0  0  0
  -42.3213   77.8100  -51.4866 C   0  0  0  0  0  0  0  0  0  0  0  0
  -41.2527   77.0026  -51.7677 C   0  0  0  0  0  0  0  0  0  0  0  0
  -40.3309   77.1048  -50.7371 N   0  0  0  0  0  0  0  0  0  0  0  0
  -40.8265   77.9919  -49.8682 C   0  0  0  0  0  0  0  0  0  0  0  0
  -40.1129   78.3940  -48.6370 C   0  0  0  0  0  0  0  0  0  0  0  0
  -40.8961   78.6026  -47.5517 N   0  0  0  0  0  0  0  0  0  0  0  0
  -40.3238   78.9052  -46.3728 C   0  0  0  0  0  0  0  0  0  0  0  0
  -41.2653   79.1440  -45.2122 C   0  0  0  0  0  0  0  0  0  0  0  0
  -38.9341   78.9963  -46.2017 C   0  0  0  0  0  0  0  0  0  0  0  0
  -38.0970   78.8289  -47.3201 C   0  0  0  0  0  0  0  0  0  0  0  0
  -36.5910   78.9808  -47.1282 C   0  0  0  0  0  0  0  0  0  0  0  0
  -36.0338   78.0824  -46.1248 N   0  0  0  0  0  0  0  0  0  0  0  0
  -35.5199   78.4397  -44.9402 C   0  0  0  0  0  0  0  0  0  0  0  0
  -35.6181   79.5698  -44.4594 O   0  0  0  0  0  0  0  0  0  0  0  0
  -34.7223   77.3515  -44.2170 C   0  0  0  0  0  0  0  0  0  0  0  0
  -35.5225   76.2100  -43.7392 N   0  0  0  0  0  0  0  0  0  0  0  0
  -34.7223   75.1852  -43.0777 C   0  0  0  0  0  0  0  0  0  0  0  0
  -35.7293   74.3686  -42.2593 C   0  0  0  0  0  0  0  0  0  0  0  0
  -36.9627   75.2581  -42.1525 C   0  0  0  0  0  0  0  0  0  0  0  0
  -36.5388   76.5859  -42.7679 C   0  0  0  0  0  0  0  0  0  0  0  0
  -38.6984   78.5800  -48.5865 C   0  0  0  0  0  0  0  0  0  0  0  0
  -37.8467   78.5376  -49.8551 C   0  0  0  0  0  0  0  0  0  0  0  0
  1  2  1  0
  2  3  1  0
  2  6  1  0
  3  4  2  0
  4  5  1  0
  5  6  2  0
  6  7  1  0
  7  8  2  0
  7 23  1  0
  8  9  1  0
  9 10  1  0
  9 11  2  0
 11 12  1  0
 12 13  1  0
 12 23  2  0
 13 14  1  0
 14 15  1  0
 15 16  2  0
 15 17  1  0
 17 18  1  0
 18 19  1  0
 18 22  1  0
 19 20  1  0
 20 21  1  0
 21 22  1  0
 23 24  1  0
M  END
>  <cluster>  (192) 
cluster_3448

>  <glide_score>  (192) 
-6.67186283459119

>  <mmgbsa_dG>  (192) 
-39.4629392177012

$$$$
No_669
     RDKit          3D

 24 26  0  0  1  0  0  0  0  0999 V2000
  -30.4036   75.3249  -48.4010 C   0  0  0  0  0  0  0  0  0  0  0  0
  -31.7371   75.1843  -48.8756 O   0  0  0  0  0  0  0  0  0  0  0  0
  -32.6620   75.1696  -47.9059 C   0  0  0  0  0  0  0  0  0  0  0  0
  -32.7213   74.3845  -46.8283 N   0  0  0  0  0  0  0  0  0  0  0  0
  -33.8021   74.7104  -46.0083 C   0  0  0  0  0  0  0  0  0  0  0  0
  -33.9912   73.9622  -44.7233 C   0  0  0  0  0  0  0  0  0  0  0  0
  -34.5680   75.7460  -46.4970 C   0  0  0  0  0  0  0  0  0  0  0  0
  -35.7470   76.3988  -45.8536 C   0  0  0  0  0  0  0  0  0  0  0  0
  -35.5703   77.8641  -45.7436 N   0  0  2  0  0  0  0  0  0  0  0  0
  -34.4636   78.2885  -44.8738 C   0  0  0  0  0  0  0  0  0  0  0  0
  -34.8703   79.6640  -44.3422 C   0  0  0  0  0  0  0  0  0  0  0  0
  -36.2328   79.8997  -44.8077 N   0  0  0  0  0  0  0  0  0  0  0  0
  -36.7506   78.6011  -45.2627 C   0  0  1  0  0  0  0  0  0  0  0  0
  -37.7805   78.7847  -46.3760 C   0  0  0  0  0  0  0  0  0  0  0  0
  -37.3798   78.9943  -47.5209 O   0  0  0  0  0  0  0  0  0  0  0  0
  -39.0709   78.7509  -46.0042 N   0  0  0  0  0  0  0  0  0  0  0  0
  -40.2222   78.7908  -46.8181 C   0  0  0  0  0  0  0  0  0  0  0  0
  -41.4341   79.0022  -46.1288 C   0  0  0  0  0  0  0  0  0  0  0  0
  -42.6434   79.0029  -46.8472 C   0  0  0  0  0  0  0  0  0  0  0  0
  -43.9577   79.2189  -46.1408 C   0  0  0  0  0  0  0  0  0  0  0  0
  -42.6040   78.7985  -48.2375 C   0  0  0  0  0  0  0  0  0  0  0  0
  -41.3514   78.6052  -48.8473 C   0  0  0  0  0  0  0  0  0  0  0  0
  -40.1919   78.6038  -48.1580 N   0  0  0  0  0  0  0  0  0  0  0  0
  -33.9808   76.3119  -48.0437 S   0  0  0  0  0  0  0  0  0  0  0  0
  1  2  1  0
  2  3  1  0
  3  4  2  0
  3 24  1  0
  4  5  1  0
  5  6  1  0
  5  7  2  0
  7  8  1  0
  7 24  1  0
  9  8  1  1
  9 10  1  0
  9 13  1  0
 10 11  1  0
 11 12  1  0
 12 13  1  0
 13 14  1  6
 14 15  2  0
 14 16  1  0
 16 17  1  0
 17 18  2  0
 17 23  1  0
 18 19  1  0
 19 20  1  0
 19 21  2  0
 21 22  1  0
 22 23  2  0
M  CHG  1   9   1
M  END
>  <cluster>  (193) 
cluster_58705

>  <glide_score>  (193) 
-6.71188996471346

>  <mmgbsa_dG>  (193) 
-39.4574134794966

$$$$
No_3527
     RDKit          3D

 23 25  0  0  1  0  0  0  0  0999 V2000
  -34.9614   70.2465  -50.6810 C   0  0  0  0  0  0  0  0  0  0  0  0
  -35.4609   71.6038  -50.5134 N   0  0  0  0  0  0  0  0  0  0  0  0
  -34.9941   72.4796  -49.6119 C   0  0  0  0  0  0  0  0  0  0  0  0
  -34.1036   72.2028  -48.8077 O   0  0  0  0  0  0  0  0  0  0  0  0
  -35.6007   73.8889  -49.6435 C   0  0  0  0  0  0  0  0  0  0  0  0
  -34.5041   74.9676  -49.6315 C   0  0  0  0  0  0  0  0  0  0  0  0
  -35.1228   76.3705  -49.6979 C   0  0  0  0  0  0  0  0  0  0  0  0
  -36.0838   76.6082  -48.5876 N   0  0  0  0  0  0  0  0  0  0  0  0
  -36.6135   77.9950  -48.6450 C   0  0  0  0  0  0  0  0  0  0  0  0
  -37.4573   78.3689  -47.4722 C   0  0  0  0  0  0  0  0  0  0  0  0
  -37.1830   78.7464  -46.1882 C   0  0  0  0  0  0  0  0  0  0  0  0
  -38.4395   79.0025  -45.5743 C   0  0  0  0  0  0  0  0  0  0  0  0
  -39.3943   78.7560  -46.5225 C   0  0  0  0  0  0  0  0  0  0  0  0
  -40.8503   78.8252  -46.5076 C   0  0  0  0  0  0  0  0  0  0  0  0
  -41.6221   78.6025  -47.6697 C   0  0  0  0  0  0  0  0  0  0  0  0
  -42.9701   78.6418  -47.6950 N   0  0  0  0  0  0  0  0  0  0  0  0
  -43.6161   78.9325  -46.5475 C   0  0  0  0  0  0  0  0  0  0  0  0
  -45.1216   79.0032  -46.6336 C   0  0  0  0  0  0  0  0  0  0  0  0
  -42.9520   79.1674  -45.3302 C   0  0  0  0  0  0  0  0  0  0  0  0
  -41.5473   79.1140  -45.3169 C   0  0  0  0  0  0  0  0  0  0  0  0
  -38.8010   78.3735  -47.6875 O   0  0  0  0  0  0  0  0  0  0  0  0
  -37.1449   75.5621  -48.5239 C   0  0  0  0  0  0  0  0  0  0  0  0
  -36.5459   74.1429  -48.4544 C   0  0  0  0  0  0  0  0  0  0  0  0
  1  2  1  0
  2  3  1  0
  3  4  2  0
  3  5  1  0
  5  6  1  0
  5 23  1  0
  6  7  1  0
  7  8  1  0
  8  9  1  0
  8 22  1  0
  9 10  1  0
 10 11  2  0
 10 21  1  0
 11 12  1  0
 12 13  2  0
 13 14  1  0
 13 21  1  0
 14 15  2  0
 14 20  1  0
 15 16  1  0
 16 17  2  0
 17 18  1  0
 17 19  1  0
 19 20  2  0
 22 23  1  0
M  CHG  1   8   1
M  END
>  <cluster>  (194) 
cluster_45735

>  <glide_score>  (194) 
-7.20629288345443

>  <mmgbsa_dG>  (194) 
-39.4274096930749

$$$$
No_1823
     RDKit          3D

 25 28  0  0  1  0  0  0  0  0999 V2000
  -42.8960   79.4029  -50.8061 N   0  0  0  0  0  0  0  0  0  0  0  0
  -42.2303   78.4093  -50.2169 C   0  0  0  0  0  0  0  0  0  0  0  0
  -41.8973   77.3820  -50.8053 O   0  0  0  0  0  0  0  0  0  0  0  0
  -41.8810   78.6235  -48.7792 C   0  0  0  0  0  0  0  0  0  0  0  0
  -42.8852   78.8329  -47.8129 C   0  0  0  0  0  0  0  0  0  0  0  0
  -42.5340   79.0033  -46.4618 C   0  0  0  0  0  0  0  0  0  0  0  0
  -41.1792   79.0026  -46.0761 C   0  0  0  0  0  0  0  0  0  0  0  0
  -40.1555   78.8080  -47.0366 C   0  0  0  0  0  0  0  0  0  0  0  0
  -38.7845   78.8384  -46.7059 N   0  0  0  0  0  0  0  0  0  0  0  0
  -38.2727   79.1110  -45.3727 C   0  0  0  0  0  0  0  0  0  0  0  0
  -37.1225   78.1248  -45.2082 C   0  0  0  0  0  0  0  0  0  0  0  0
  -36.6620   77.8659  -46.5845 N   0  0  1  0  0  0  0  0  0  0  0  0
  -35.9207   76.6025  -46.8061 C   0  0  0  0  0  0  0  0  0  0  0  0
  -34.6132   76.4948  -45.9844 C   0  0  2  0  0  0  0  0  0  0  0  0
  -33.5925   75.5888  -46.6758 C   0  0  0  0  0  0  0  0  0  0  0  0
  -33.8411   74.2029  -46.0944 C   0  0  0  0  0  0  0  0  0  0  0  0
  -34.3221   74.4377  -44.7402 N   0  0  0  0  0  0  0  0  0  0  0  0
  -34.3226   73.4891  -43.7766 C   0  0  0  0  0  0  0  0  0  0  0  0
  -34.0421   72.3105  -44.0070 O   0  0  0  0  0  0  0  0  0  0  0  0
  -34.6251   73.9593  -42.3950 C   0  0  0  0  0  0  0  0  0  0  0  0
  -36.0648   74.2332  -42.0077 C   0  0  0  0  0  0  0  0  0  0  0  0
  -35.3781   73.0014  -41.4909 C   0  0  0  0  0  0  0  0  0  0  0  0
  -34.8190   75.8130  -44.6146 C   0  0  0  0  0  0  0  0  0  0  0  0
  -37.8480   78.0096  -47.4527 C   0  0  0  0  0  0  0  0  0  0  0  0
  -40.5302   78.6019  -48.3849 C   0  0  0  0  0  0  0  0  0  0  0  0
  1  2  1  0
  2  3  2  0
  2  4  1  0
  4  5  2  0
  4 25  1  0
  5  6  1  0
  6  7  2  0
  7  8  1  0
  8  9  1  0
  8 25  2  0
  9 10  1  0
  9 24  1  0
 10 11  1  0
 11 12  1  0
 12 13  1  1
 12 24  1  0
 14 13  1  6
 14 15  1  0
 14 23  1  0
 15 16  1  0
 16 17  1  0
 17 18  1  0
 17 23  1  0
 18 19  2  0
 18 20  1  0
 20 21  1  0
 20 22  1  0
 21 22  1  0
M  CHG  1  12   1
M  END
>  <cluster>  (195) 
cluster_33479

>  <glide_score>  (195) 
-6.91846676672684

>  <mmgbsa_dG>  (195) 
-39.4273831836254

$$$$
No_2685
     RDKit          3D

 23 25  0  0  1  0  0  0  0  0999 V2000
  -35.1223   77.8064  -42.9094 C   0  0  0  0  0  0  0  0  0  0  0  0
  -35.2022   76.5744  -43.8345 C   0  0  2  0  0  0  0  0  0  0  0  0
  -36.2629   76.6088  -44.8351 N   0  0  0  0  0  0  0  0  0  0  0  0
  -36.4774   77.5993  -45.7192 C   0  0  0  0  0  0  0  0  0  0  0  0
  -35.9573   78.7122  -45.6621 O   0  0  0  0  0  0  0  0  0  0  0  0
  -37.3347   77.2560  -46.6852 N   0  0  0  0  0  0  0  0  0  0  0  0
  -37.9988   78.2179  -47.5588 C   0  0  1  0  0  0  0  0  0  0  0  0
  -38.2328   77.6735  -48.9570 C   0  0  0  0  0  0  0  0  0  0  0  0
  -39.5229   78.3603  -49.3982 C   0  0  0  0  0  0  0  0  0  0  0  0
  -40.3068   78.6024  -48.1795 N   0  0  0  0  0  0  0  0  0  0  0  0
  -41.6687   78.6021  -48.2185 C   0  0  0  0  0  0  0  0  0  0  0  0
  -42.2520   78.4482  -49.2941 O   0  0  0  0  0  0  0  0  0  0  0  0
  -42.3897   78.7628  -47.0737 N   0  0  0  0  0  0  0  0  0  0  0  0
  -41.9776   79.0026  -45.6816 C   0  0  0  0  0  0  0  0  0  0  0  0
  -43.2502   79.0146  -44.8442 C   0  0  0  0  0  0  0  0  0  0  0  0
  -44.3221   79.4027  -45.8304 C   0  0  0  0  0  0  0  0  0  0  0  0
  -43.8540   78.7843  -47.1335 C   0  0  0  0  0  0  0  0  0  0  0  0
  -39.4043   78.5119  -47.0292 C   0  0  0  0  0  0  0  0  0  0  0  0
  -35.2382   75.3046  -43.0393 C   0  0  0  0  0  0  0  0  0  0  0  0
  -36.0179   74.8506  -42.0082 C   0  0  0  0  0  0  0  0  0  0  0  0
  -35.5228   73.5622  -41.6630 C   0  0  0  0  0  0  0  0  0  0  0  0
  -34.4887   73.3156  -42.5187 C   0  0  0  0  0  0  0  0  0  0  0  0
  -34.3222   74.3552  -43.3800 O   0  0  0  0  0  0  0  0  0  0  0  0
  2  1  1  1
  2  3  1  0
  2 19  1  0
  3  4  1  0
  4  5  2  0
  4  6  1  0
  7  6  1  1
  7  8  1  0
  7 18  1  0
  8  9  1  0
  9 10  1  0
 10 11  1  0
 10 18  1  0
 11 12  2  0
 11 13  1  0
 13 14  1  0
 13 17  1  0
 14 15  1  0
 15 16  1  0
 16 17  1  0
 19 20  2  0
 19 23  1  0
 20 21  1  0
 21 22  2  0
 22 23  1  0
M  END
>  <cluster>  (196) 
cluster_2685

>  <glide_score>  (196) 
-6.72230918945169

>  <mmgbsa_dG>  (196) 
-39.3773633209785

$$$$
No_1960
     RDKit          3D

 24 26  0  0  1  0  0  0  0  0999 V2000
  -30.1334   75.7699  -48.3141 N   0  0  0  0  0  0  0  0  0  0  0  0
  -31.1269   75.3979  -49.1195 C   0  0  0  0  0  0  0  0  0  0  0  0
  -30.9032   74.9552  -50.2428 O   0  0  0  0  0  0  0  0  0  0  0  0
  -32.5685   75.5196  -48.5913 C   0  0  1  0  0  0  0  0  0  0  0  0
  -33.1987   76.8553  -49.0696 C   0  0  0  0  0  0  0  0  0  0  0  0
  -33.8343   77.7030  -47.9510 C   0  0  0  0  0  0  0  0  0  0  0  0
  -35.2763   77.4963  -47.7757 N   0  0  0  0  0  0  0  0  0  0  0  0
  -35.7663   78.5617  -46.8964 C   0  0  0  0  0  0  0  0  0  0  0  0
  -37.2792   78.6757  -46.7565 C   0  0  0  0  0  0  0  0  0  0  0  0
  -38.1676   78.2504  -47.7652 C   0  0  0  0  0  0  0  0  0  0  0  0
  -39.5082   78.3707  -47.6680 N   0  0  0  0  0  0  0  0  0  0  0  0
  -40.0466   78.9155  -46.5513 C   0  0  0  0  0  0  0  0  0  0  0  0
  -41.4636   79.0016  -46.4550 N   0  0  0  0  0  0  0  0  0  0  0  0
  -42.3565   78.7271  -47.4831 C   0  0  0  0  0  0  0  0  0  0  0  0
  -43.6269   78.9382  -47.0277 C   0  0  0  0  0  0  0  0  0  0  0  0
  -43.5330   79.3500  -45.6727 C   0  0  0  0  0  0  0  0  0  0  0  0
  -42.2081   79.3755  -45.3430 C   0  0  0  0  0  0  0  0  0  0  0  0
  -39.2277   79.4033  -45.5068 C   0  0  0  0  0  0  0  0  0  0  0  0
  -37.8317   79.2704  -45.6078 C   0  0  0  0  0  0  0  0  0  0  0  0
  -35.5544   76.1817  -47.1878 C   0  0  0  0  0  0  0  0  0  0  0  0
  -35.7531   75.0920  -48.2708 C   0  0  2  0  0  0  0  0  0  0  0  0
  -37.1541   74.4691  -48.1600 C   0  0  0  0  0  0  0  0  0  0  0  0
  -34.6663   73.9992  -48.1894 C   0  0  0  0  0  0  0  0  0  0  0  0
  -33.3974   74.2814  -49.0148 C   0  0  0  0  0  0  0  0  0  0  0  0
  1  2  1  0
  2  3  2  0
  4  2  1  6
  4  5  1  0
  4 24  1  0
  5  6  1  0
  6  7  1  0
  7  8  1  0
  7 20  1  0
  8  9  1  0
  9 10  2  0
  9 19  1  0
 10 11  1  0
 11 12  2  0
 12 13  1  0
 12 18  1  0
 13 14  1  0
 13 17  1  0
 14 15  2  0
 15 16  1  0
 16 17  2  0
 18 19  2  0
 20 21  1  0
 21 22  1  1
 21 23  1  0
 23 24  1  0
M  END
>  <cluster>  (197) 
cluster_1960

>  <glide_score>  (197) 
-7.08340257088826

>  <mmgbsa_dG>  (197) 
-39.2890443596189

$$$$
No_1605
     RDKit          3D

 25 28  0  0  1  0  0  0  0  0999 V2000
  -34.5426   77.7083  -45.8401 O   0  0  0  0  0  0  0  0  0  0  0  0
  -35.7360   77.7735  -45.5416 C   0  0  0  0  0  0  0  0  0  0  0  0
  -36.1947   77.4884  -44.3143 N   0  0  0  0  0  0  0  0  0  0  0  0
  -35.3590   77.0432  -43.2022 C   0  0  0  0  0  0  0  0  0  0  0  0
  -35.4925   75.5268  -42.9781 C   0  0  2  0  0  0  0  0  0  0  0  0
  -36.6549   75.2232  -42.0071 C   0  0  0  0  0  0  0  0  0  0  0  0
  -36.7218   73.8028  -41.6094 N   0  0  0  0  0  0  0  0  0  0  0  0
  -35.4169   73.2134  -41.2502 C   0  0  0  0  0  0  0  0  0  0  0  0
  -34.3477   73.5867  -42.2813 C   0  0  0  0  0  0  0  0  0  0  0  0
  -34.3118   75.0017  -42.4098 O   0  0  0  0  0  0  0  0  0  0  0  0
  -36.7962   78.1824  -46.5111 C   0  0  0  0  0  0  0  0  0  0  0  0
  -38.1523   78.2020  -46.2063 N   0  0  0  0  0  0  0  0  0  0  0  0
  -38.7839   78.5622  -47.3175 C   0  0  0  0  0  0  0  0  0  0  0  0
  -40.2464   78.6023  -47.3875 C   0  0  0  0  0  0  0  0  0  0  0  0
  -40.9258   78.2033  -48.5948 C   0  0  0  0  0  0  0  0  0  0  0  0
  -42.3391   78.2187  -48.7353 C   0  0  0  0  0  0  0  0  0  0  0  0
  -43.0271   78.6334  -47.5952 C   0  0  0  0  0  0  0  0  0  0  0  0
  -42.3560   79.0027  -46.4003 C   0  0  0  0  0  0  0  0  0  0  0  0
  -40.9736   79.0029  -46.2250 C   0  0  0  0  0  0  0  0  0  0  0  0
  -43.6763   79.3174  -45.7979 C   0  0  0  0  0  0  0  0  0  0  0  0
  -44.2910   78.8786  -47.1023 O   0  0  0  0  0  0  0  0  0  0  0  0
  -37.9104   78.8663  -48.3080 N   0  0  0  0  0  0  0  0  0  0  0  0
  -38.2031   79.3909  -49.6329 C   0  0  0  0  0  0  0  0  0  0  0  0
  -36.6322   78.5889  -47.8195 C   0  0  0  0  0  0  0  0  0  0  0  0
  -35.3926   78.7495  -48.6472 C   0  0  0  0  0  0  0  0  0  0  0  0
  1  2  2  0
  2  3  1  0
  2 11  1  0
  3  4  1  0
  5  4  1  1
  5  6  1  0
  5 10  1  0
  6  7  1  0
  7  8  1  0
  8  9  1  0
  9 10  1  0
 11 12  1  0
 11 24  2  0
 12 13  2  0
 13 14  1  0
 13 22  1  0
 14 15  2  0
 14 19  1  0
 15 16  1  0
 16 17  2  0
 17 18  1  0
 17 21  1  0
 18 19  2  0
 18 20  1  0
 20 21  1  0
 22 23  1  0
 22 24  1  0
 24 25  1  0
M  CHG  1   7   1
M  END
>  <cluster>  (198) 
cluster_75469

>  <glide_score>  (198) 
-6.80164180898625

>  <mmgbsa_dG>  (198) 
-39.2261184814051

$$$$
No_56
     RDKit          3D

 21 23  0  0  1  0  0  0  0  0999 V2000
  -35.1223   72.6741  -41.2077 N   0  0  0  0  0  0  0  0  0  0  0  0
  -34.6597   72.7283  -42.4567 C   0  0  0  0  0  0  0  0  0  0  0  0
  -34.3881   71.7078  -43.0937 O   0  0  0  0  0  0  0  0  0  0  0  0
  -34.4538   74.1243  -43.0727 C   0  0  0  0  0  0  0  0  0  0  0  0
  -35.5627   75.1153  -42.6447 C   0  0  0  0  0  0  0  0  0  0  0  0
  -35.4507   76.4539  -43.3870 C   0  0  0  0  0  0  0  0  0  0  0  0
  -35.5331   76.2027  -44.8430 N   0  0  0  0  0  0  0  0  0  0  0  0
  -35.8844   77.3779  -45.6733 C   0  0  0  0  0  0  0  0  0  0  0  0
  -36.4684   77.0331  -47.0436 C   0  0  0  0  0  0  0  0  0  0  0  0
  -37.4370   78.0920  -46.7813 N   0  0  0  0  0  0  0  0  0  0  0  0
  -38.6628   78.2031  -47.4273 C   0  0  0  0  0  0  0  0  0  0  0  0
  -38.8921   77.7853  -48.5614 O   0  0  0  0  0  0  0  0  0  0  0  0
  -39.5564   78.8217  -46.6103 O   0  0  0  0  0  0  0  0  0  0  0  0
  -40.8787   78.8672  -46.8803 C   0  0  0  0  0  0  0  0  0  0  0  0
  -41.5120   78.8967  -48.0590 N   0  0  0  0  0  0  0  0  0  0  0  0
  -42.8974   79.0026  -47.9046 C   0  0  0  0  0  0  0  0  0  0  0  0
  -43.3013   79.0709  -46.5943 C   0  0  0  0  0  0  0  0  0  0  0  0
  -41.9500   79.0027  -45.4948 S   0  0  0  0  0  0  0  0  0  0  0  0
  -37.2195   78.0448  -45.3382 C   0  0  0  0  0  0  0  0  0  0  0  0
  -34.3928   75.4026  -45.3399 C   0  0  0  0  0  0  0  0  0  0  0  0
  -34.3222   74.0392  -44.6190 C   0  0  0  0  0  0  0  0  0  0  0  0
  1  2  1  0
  2  3  2  0
  2  4  1  0
  4  5  1  0
  4 21  1  0
  5  6  1  0
  6  7  1  0
  7  8  1  0
  7 20  1  0
  8  9  1  0
  8 19  1  0
  9 10  1  0
 10 11  1  0
 10 19  1  0
 11 12  2  0
 11 13  1  0
 13 14  1  0
 14 15  2  0
 14 18  1  0
 15 16  1  0
 16 17  2  0
 17 18  1  0
 20 21  1  0
M  CHG  1   7   1
M  END
>  <cluster>  (199) 
cluster_63368

>  <glide_score>  (199) 
-6.79930190917783

>  <mmgbsa_dG>  (199) 
-39.2171507718085

$$$$
No_44
     RDKit          3D

 25 27  0  0  1  0  0  0  0  0999 V2000
  -40.8922   77.8606  -50.1072 C   0  0  0  0  0  0  0  0  0  0  0  0
  -40.0425   78.1979  -49.0200 O   0  0  0  0  0  0  0  0  0  0  0  0
  -40.6204   78.6027  -47.8346 C   0  0  0  0  0  0  0  0  0  0  0  0
  -42.0217   78.6323  -47.6210 C   0  0  0  0  0  0  0  0  0  0  0  0
  -42.5239   79.0340  -46.3675 C   0  0  0  0  0  0  0  0  0  0  0  0
  -44.0182   79.1329  -46.1168 C   0  0  0  0  0  0  0  0  0  0  0  0
  -44.6875   78.2070  -46.8068 F   0  0  0  0  0  0  0  0  0  0  0  0
  -44.3020   79.0027  -44.8209 F   0  0  0  0  0  0  0  0  0  0  0  0
  -41.6002   79.4025  -45.3736 C   0  0  0  0  0  0  0  0  0  0  0  0
  -40.2674   79.4019  -45.5656 N   0  0  0  0  0  0  0  0  0  0  0  0
  -39.7843   79.0018  -46.7601 C   0  0  0  0  0  0  0  0  0  0  0  0
  -38.2580   78.9501  -46.8344 C   0  0  1  0  0  0  0  0  0  0  0  0
  -37.7460   77.5834  -46.3488 C   0  0  0  0  0  0  0  0  0  0  0  0
  -36.2837   77.5305  -46.4204 N   0  0  0  0  0  0  0  0  0  0  0  0
  -35.4132   77.3323  -45.4007 C   0  0  0  0  0  0  0  0  0  0  0  0
  -34.2115   77.1689  -45.6081 O   0  0  0  0  0  0  0  0  0  0  0  0
  -35.8717   77.3846  -43.9269 C   0  0  0  0  0  0  0  0  0  0  0  0
  -35.7914   76.0968  -43.2088 N   0  0  0  0  0  0  0  0  0  0  0  0
  -34.7839   75.1595  -43.2398 C   0  0  0  0  0  0  0  0  0  0  0  0
  -35.1085   74.1911  -42.3278 C   0  0  0  0  0  0  0  0  0  0  0  0
  -36.2946   74.5764  -41.7674 N   0  0  0  0  0  0  0  0  0  0  0  0
  -36.7203   75.7168  -42.3186 C   0  0  0  0  0  0  0  0  0  0  0  0
  -35.8497   77.7480  -47.8038 C   0  0  0  0  0  0  0  0  0  0  0  0
  -36.3263   79.1442  -48.2399 C   0  0  0  0  0  0  0  0  0  0  0  0
  -37.7455   79.2214  -48.1406 O   0  0  0  0  0  0  0  0  0  0  0  0
  1  2  1  0
  2  3  1  0
  3  4  2  0
  3 11  1  0
  4  5  1  0
  5  6  1  0
  5  9  2  0
  6  7  1  0
  6  8  1  0
  9 10  1  0
 10 11  2  0
 12 11  1  6
 12 13  1  0
 12 25  1  0
 13 14  1  0
 14 15  1  0
 14 23  1  0
 15 16  2  0
 15 17  1  0
 17 18  1  0
 18 19  1  0
 18 22  1  0
 19 20  2  0
 20 21  1  0
 21 22  2  0
 23 24  1  0
 24 25  1  0
M  CHG  1  21   1
M  END
>  <cluster>  (200) 
cluster_100288

>  <glide_score>  (200) 
-6.66737350593671

>  <mmgbsa_dG>  (200) 
-39.2053341828214

$$$$
